COC1(NC(=O)C(C(=O)O)c2ccc(O)cc2)C(=O)N2C(C(=O)O)=C(CSc3nnnn3C)COC21
Actelion Java MolfileCreator 2.0

  0  0  0  0  0  0              0 V3000
M  V30 BEGIN CTAB
M  V30 COUNTS 56 59 0 0 0
M  V30 BEGIN ATOM
M  V30 1 S 4.8947 2.6082 -0.3257 0
M  V30 2 C 5.7692 4.0743 -0.5641 0
M  V30 3 C 3.2082 3.1995 -0.6519 0
M  V30 4 N 5.4282 5.0858 -1.3284 0
M  V30 5 N 6.9605 4.3594 0.0332 0
M  V30 6 C 2.2126 2.0965 -0.3852 0
M  V30 7 N 6.4401 6.009 -1.1972 0
M  V30 8 N 7.3808 5.573 -0.3682 0
M  V30 9 C 7.7284 3.5862 0.9676 0
M  V30 10 C 1.5099 1.9693 0.7648 0
M  V30 11 C 2.0314 1.1158 -1.537 0
M  V30 12 N 0.5972 0.976 0.8609 0
M  V30 13 C 1.734 2.8514 1.9403 0
M  V30 14 O 1.2587 -0.043 -1.1876 0
M  V30 15 C -0.0275 0.2614 1.8164 0
M  V30 16 C 0.1703 0.2461 -0.2948 0
M  V30 17 O 2.8074 3.2141 2.3857 0
M  V30 18 O 0.5657 3.2909 2.4411 0
M  V30 19 O -0.1134 0.4472 3.007 0
M  V30 20 C -0.4132 -0.8624 0.6939 0
M  V30 21 O 0.3691 -2.0825 0.8175 0
M  V30 22 N -1.8804 -1.0779 0.5117 0
M  V30 23 C 0.2677 -3.0217 -0.2387 0
M  V30 24 C -2.683 -1.5862 1.519 0
M  V30 25 O -2.2404 -1.8838 2.6225 0
M  V30 26 C -4.1627 -1.6757 1.1601 0
M  V30 27 C -4.421 -2.3501 -0.1852 0
M  V30 28 C -5.0027 -2.2608 2.2707 0
M  V30 29 C -5.1824 -1.6921 -1.1649 0
M  V30 30 C -3.9054 -3.6259 -0.4724 0
M  V30 31 O -5.8491 -1.6507 2.9098 0
M  V30 32 O -4.7868 -3.5679 2.5207 0
M  V30 33 C -5.4041 -2.2894 -2.4066 0
M  V30 34 C -4.1314 -4.2235 -1.7141 0
M  V30 35 C -4.8773 -3.5471 -2.6721 0
M  V30 36 O -5.1213 -4.0905 -3.8977 0
M  V30 37 H 3.1268 3.5219 -1.6966 0
M  V30 38 H 3.0015 4.0843 -0.0407 0
M  V30 39 H 8.6288 4.1393 1.2486 0
M  V30 40 H 7.1198 3.4039 1.8568 0
M  V30 41 H 8.012 2.6435 0.4933 0
M  V30 42 H 3.0016 0.7484 -1.8845 0
M  V30 43 H 1.5349 1.615 -2.3766 0
M  V30 44 H -0.6216 0.777 -0.8422 0
M  V30 45 H 0.8129 3.7736 3.2563 0
M  V30 46 H -2.3022 -0.9041 -0.3923 0
M  V30 47 H -0.6849 -3.5537 -0.1731 0
M  V30 48 H 1.0792 -3.7469 -0.1367 0
M  V30 49 H 0.3524 -2.5343 -1.2133 0
M  V30 50 H -4.4837 -0.6263 1.0743 0
M  V30 51 H -5.6169 -0.7126 -0.9718 0
M  V30 52 H -3.3292 -4.17 0.2761 0
M  V30 53 H -5.3621 -3.7635 3.2903 0
M  V30 54 H -5.9954 -1.7794 -3.1628 0
M  V30 55 H -3.7247 -5.211 -1.9098 0
M  V30 56 H -4.7626 -4.9931 -3.9165 0
M  V30 END ATOM
M  V30 BEGIN BOND
M  V30 1 1 1 2
M  V30 2 1 1 3
M  V30 3 2 2 4
M  V30 4 1 2 5
M  V30 5 1 3 6
M  V30 6 1 4 7
M  V30 7 1 5 8
M  V30 8 1 5 9
M  V30 9 2 6 10
M  V30 10 1 6 11
M  V30 11 1 10 12
M  V30 12 1 10 13
M  V30 13 1 11 14
M  V30 14 1 12 15
M  V30 15 1 12 16
M  V30 16 2 13 17
M  V30 17 1 13 18
M  V30 18 2 15 19
M  V30 19 1 15 20
M  V30 20 1 20 21
M  V30 21 1 20 22
M  V30 22 1 21 23
M  V30 23 1 22 24
M  V30 24 2 24 25
M  V30 25 1 24 26
M  V30 26 1 26 27
M  V30 27 1 26 28
M  V30 28 2 27 29
M  V30 29 1 27 30
M  V30 30 2 28 31
M  V30 31 1 28 32
M  V30 32 1 29 33
M  V30 33 2 30 34
M  V30 34 2 33 35
M  V30 35 1 35 36
M  V30 36 2 7 8
M  V30 37 1 14 16
M  V30 38 1 16 20
M  V30 39 1 34 35
M  V30 40 1 3 37
M  V30 41 1 3 38
M  V30 42 1 9 39
M  V30 43 1 9 40
M  V30 44 1 9 41
M  V30 45 1 11 42
M  V30 46 1 11 43
M  V30 47 1 16 44
M  V30 48 1 18 45
M  V30 49 1 22 46
M  V30 50 1 23 47
M  V30 51 1 23 48
M  V30 52 1 23 49
M  V30 53 1 26 50
M  V30 54 1 29 51
M  V30 55 1 30 52
M  V30 56 1 32 53
M  V30 57 1 33 54
M  V30 58 1 34 55
M  V30 59 1 36 56
M  V30 END BOND
M  V30 END CTAB
M  END
>  <level_0>
1

>  <index>
1

>  <NO.>
2

>  <Name>
moxalactam

>  <SMILES>
COC1(NC(=O)C(C(=O)O)c2ccc(O)cc2)C(=O)N2C(C(=O)O)=C(CSc3nnnn3C)COC21

>  <logBB>
-2.52

>  <Class>
-1

>  <MW>
520.1

>  <nHBAcc>
11

>  <nHBDon>
4

>  <SLogP>
-1.13

>  <TopoPSA>
206.3

>  <MMFF94 Energy>
25.82

$$$$
CN1CC[C@]23c4c5ccc(OC6O[C@H](C(=O)O)[C@@H](O)[C@H](O)[C@H]6O)c4O[C@H]2[C@@H](O)C=C[C@H]3[C@H]1C5
Actelion Java MolfileCreator 2.0

  0  0  0  0  0  0              0 V3000
M  V30 BEGIN CTAB
M  V30 COUNTS 60 65 0 0 0
M  V30 BEGIN ATOM
M  V30 1 O -0.2436 0.2436 4.636 0
M  V30 2 C -1.0692 1.0919 4.3413 0
M  V30 3 O -1.1921 2.1986 5.1139 0
M  V30 4 C -2.0446 1.0862 3.1642 0 CFG=1
M  V30 5 O -1.7912 -0.0881 2.3917 0
M  V30 6 C -3.4737 1.0937 3.7218 0 CFG=1
M  V30 7 C -2.6673 -0.2528 1.2716 0
M  V30 8 O -3.8349 2.3531 4.3157 0
M  V30 9 C -4.4794 0.8418 2.5996 0 CFG=1
M  V30 10 O -2.3414 -1.4632 0.5796 0
M  V30 11 C -4.1212 -0.3863 1.7693 0 CFG=1
M  V30 12 O -5.7967 0.6724 3.1528 0
M  V30 13 C -1.1812 -1.5123 -0.133 0
M  V30 14 O -5.0572 -0.4764 0.6824 0
M  V30 15 C -0.3381 -0.474 -0.481 0
M  V30 16 C -0.8129 -2.8036 -0.5503 0
M  V30 17 O -0.4316 0.8494 -0.1319 0
M  V30 18 C 0.7902 -0.7124 -1.2448 0
M  V30 19 C 0.3857 -3.0451 -1.2497 0
M  V30 20 C 0.8841 1.4259 -0.4515 0 CFG=2
M  V30 21 C 1.2174 -1.9826 -1.5925 0
M  V30 22 C 1.5052 0.5622 -1.5632 0 CFG=1
M  V30 23 C 1.7546 1.562 0.8313 0 CFG=1
M  V30 24 C 2.582 -2.1541 -2.2062 0
M  V30 25 C 3.0197 0.315 -1.5105 0 CFG=2
M  V30 26 C 1.1096 1.0464 -2.973 0
M  V30 27 O 0.963 1.465 2.0123 0
M  V30 28 C 2.9093 0.6094 0.9563 0
M  V30 29 C 3.3197 -0.8132 -2.551 0 CFG=2
M  V30 30 C 3.5034 0.0423 -0.1054 0
M  V30 31 C 1.6171 0.1138 -4.0824 0
M  V30 32 N 3.0276 -0.2468 -3.8958 0
M  V30 33 C 3.504 -1.0891 -4.9896 0
M  V30 34 H -0.4518 2.0938 5.7536 0
M  V30 35 H -1.8336 1.9733 2.555 0
M  V30 36 H -3.5957 0.3289 4.4992 0
M  V30 37 H -2.6212 0.6028 0.5879 0
M  V30 38 H -3.1033 2.6169 4.9124 0
M  V30 39 H -4.5506 1.7234 1.9491 0
M  V30 40 H -4.2398 -1.3004 2.364 0
M  V30 41 H -5.9147 1.4307 3.7608 0
M  V30 42 H -5.9387 -0.4197 1.1022 0
M  V30 43 H -1.4521 -3.6453 -0.2903 0
M  V30 44 H 0.6611 -4.0671 -1.4977 0
M  V30 45 H 0.6805 2.4403 -0.8179 0
M  V30 46 H 2.1896 2.5692 0.8381 0
M  V30 47 H 2.5122 -2.8065 -3.0821 0
M  V30 48 H 3.1993 -2.6885 -1.4714 0
M  V30 49 H 3.5523 1.2232 -1.8318 0
M  V30 50 H 0.0211 1.1509 -3.0696 0
M  V30 51 H 1.5337 2.0469 -3.1339 0
M  V30 52 H 0.4957 0.6067 1.9477 0
M  V30 53 H 3.3032 0.4322 1.9542 0
M  V30 54 H 4.3991 -1.0166 -2.5196 0
M  V30 55 H 4.3762 -0.5895 0.0356 0
M  V30 56 H 1.4966 0.6375 -5.0391 0
M  V30 57 H 0.9844 -0.7801 -4.1411 0
M  V30 58 H 2.9366 -2.0196 -5.0899 0
M  V30 59 H 4.5619 -1.3398 -4.8556 0
M  V30 60 H 3.4313 -0.5491 -5.9404 0
M  V30 END ATOM
M  V30 BEGIN BOND
M  V30 1 2 1 2
M  V30 2 1 2 3
M  V30 3 1 2 4
M  V30 4 1 4 5
M  V30 5 1 4 6
M  V30 6 1 5 7
M  V30 7 1 6 8
M  V30 8 1 6 9
M  V30 9 1 7 10
M  V30 10 1 7 11
M  V30 11 1 9 12
M  V30 12 1 10 13
M  V30 13 1 11 14
M  V30 14 2 13 15
M  V30 15 1 13 16
M  V30 16 1 15 17
M  V30 17 1 15 18
M  V30 18 2 16 19
M  V30 19 1 17 20
M  V30 20 2 18 21
M  V30 21 1 18 22
M  V30 22 1 20 23
M  V30 23 1 21 24
M  V30 24 1 22 25
M  V30 25 1 22 26
M  V30 26 1 23 27
M  V30 27 1 23 28
M  V30 28 1 24 29
M  V30 29 1 25 30
M  V30 30 1 26 31
M  V30 31 1 29 32
M  V30 32 1 32 33
M  V30 33 1 9 11
M  V30 34 1 19 21
M  V30 35 1 20 22
M  V30 36 1 25 29
M  V30 37 2 28 30
M  V30 38 1 31 32
M  V30 39 1 3 34
M  V30 40 1 4 35
M  V30 41 1 6 36
M  V30 42 1 7 37
M  V30 43 1 8 38
M  V30 44 1 9 39
M  V30 45 1 11 40
M  V30 46 1 12 41
M  V30 47 1 14 42
M  V30 48 1 16 43
M  V30 49 1 19 44
M  V30 50 1 20 45
M  V30 51 1 23 46
M  V30 52 1 24 47
M  V30 53 1 24 48
M  V30 54 1 25 49
M  V30 55 1 26 50
M  V30 56 1 26 51
M  V30 57 1 27 52
M  V30 58 1 28 53
M  V30 59 1 29 54
M  V30 60 1 30 55
M  V30 61 1 31 56
M  V30 62 1 31 57
M  V30 63 1 33 58
M  V30 64 1 33 59
M  V30 65 1 33 60
M  V30 END BOND
M  V30 BEGIN COLLECTION
M  V30 MDLV30/STEABS ATOMS=(9 4 6 9 11 20 22 23 25 29)
M  V30 END COLLECTION
M  V30 END CTAB
M  END
>  <level_0>
4

>  <index>
4

>  <NO.>
5

>  <Name>
schembl614298

>  <SMILES>
CN1CC[C@]23c4c5ccc(OC6O[C@H](C(=O)O)[C@@H](O)[C@H](O)[C@H]6O)c4O[C@H]2[C@@H](O)C=C[C@H]3[C@H]1C5

>  <logBB>
-2.15

>  <Class>
-1

>  <MW>
461.17

>  <nHBAcc>
9

>  <nHBDon>
5

>  <SLogP>
-1.24

>  <TopoPSA>
149.15

>  <MMFF94 Energy>
191.13

$$$$
CN1CC[C@]23c4c5ccc(O)c4O[C@H]2[C@@H](OC2O[C@H](C(=O)O)[C@@H](O)[C@H](O)[C@H]2O)C=C[C@H]3[C@H]1C5
Actelion Java MolfileCreator 2.0

  0  0  0  0  0  0              0 V3000
M  V30 BEGIN CTAB
M  V30 COUNTS 60 65 0 0 0
M  V30 BEGIN ATOM
M  V30 1 O 1.95 1.95 3.903 0
M  V30 2 C 2.0446 0.7385 3.7867 0
M  V30 3 O 1.7375 -0.0495 4.8475 0
M  V30 4 C 2.4834 -0.0603 2.5625 0 CFG=1
M  V30 5 O 2.8372 0.8742 1.529 0
M  V30 6 C 3.6668 -0.9702 2.9283 0 CFG=1
M  V30 7 C 3.2593 0.2442 0.323 0
M  V30 8 O 3.3136 -2.0415 3.8217 0
M  V30 9 C 4.2379 -1.6238 1.6653 0 CFG=1
M  V30 10 O 2.2318 -0.5916 -0.2123 0
M  V30 11 C 4.5342 -0.5743 0.5992 0 CFG=1
M  V30 12 O 5.4537 -2.3255 1.9869 0
M  V30 13 C 1.3644 0.0772 -1.1311 0 CFG=1
M  V30 14 O 5.0461 -1.203 -0.5825 0
M  V30 15 C 0.8169 -0.9677 -2.0727 0
M  V30 16 C 0.2885 0.9883 -0.46 0 CFG=2
M  V30 17 C -0.2882 -0.7632 -2.8077 0
M  V30 18 O -0.009 0.5877 0.9203 0
M  V30 19 C -1.0563 1.0434 -1.2241 0 CFG=1
M  V30 20 C -1.0801 0.5172 -2.6683 0 CFG=2
M  V30 21 C -1.1973 -0.0827 0.8494 0
M  V30 22 C -1.8204 0.0862 -0.3655 0
M  V30 23 C -1.705 2.4401 -1.1676 0
M  V30 24 C -2.5871 0.416 -3.0789 0 CFG=2
M  V30 25 C -1.7474 -0.9032 1.8099 0
M  V30 26 C -2.9376 -0.6405 -0.74 0
M  V30 27 C -3.0986 2.4725 -1.8108 0
M  V30 28 N -3.118 1.8058 -3.1182 0
M  V30 29 C -3.3888 -0.588 -2.1764 0
M  V30 30 O -1.1322 -1.0504 3.0167 0
M  V30 31 C -2.924 -1.5946 1.5009 0
M  V30 32 C -3.5065 -1.4793 0.2214 0
M  V30 33 C -4.436 1.9011 -3.7395 0
M  V30 34 H 1.3929 0.6041 5.4961 0
M  V30 35 H 1.6222 -0.6613 2.2547 0
M  V30 36 H 4.4551 -0.3932 3.4282 0
M  V30 37 H 3.5211 1.0288 -0.3963 0
M  V30 38 H 2.7255 -1.6602 4.5073 0
M  V30 39 H 3.5539 -2.3889 1.2776 0
M  V30 40 H 5.3245 0.0928 0.9659 0
M  V30 41 H 5.2212 -2.8738 2.7642 0
M  V30 42 H 1.9761 0.7151 -1.786 0
M  V30 43 H 5.6631 -1.8877 -0.2544 0
M  V30 44 H 1.3963 -1.8781 -2.2021 0
M  V30 45 H 0.7257 1.9922 -0.3798 0
M  V30 46 H -0.6074 -1.5089 -3.5302 0
M  V30 47 H -0.5931 1.2442 -3.336 0
M  V30 48 H -1.0568 3.151 -1.6978 0
M  V30 49 H -1.7843 2.8017 -0.1341 0
M  V30 50 H -2.6257 0.0322 -4.1078 0
M  V30 51 H -3.3856 3.5247 -1.9319 0
M  V30 52 H -3.837 2.0303 -1.1307 0
M  V30 53 H -3.2426 -1.5925 -2.5961 0
M  V30 54 H -4.4646 -0.3909 -2.2165 0
M  V30 55 H -1.6309 -1.7012 3.5354 0
M  V30 56 H -3.3852 -2.2588 2.2259 0
M  V30 57 H -4.3857 -2.0721 -0.02 0
M  V30 58 H -4.4386 1.419 -4.7231 0
M  V30 59 H -5.2283 1.4534 -3.1314 0
M  V30 60 H -4.698 2.9518 -3.9087 0
M  V30 END ATOM
M  V30 BEGIN BOND
M  V30 1 2 1 2
M  V30 2 1 2 3
M  V30 3 1 2 4
M  V30 4 1 4 5
M  V30 5 1 4 6
M  V30 6 1 5 7
M  V30 7 1 6 8
M  V30 8 1 6 9
M  V30 9 1 7 10
M  V30 10 1 7 11
M  V30 11 1 9 12
M  V30 12 1 10 13
M  V30 13 1 11 14
M  V30 14 1 13 15
M  V30 15 1 13 16
M  V30 16 2 15 17
M  V30 17 1 16 18
M  V30 18 1 16 19
M  V30 19 1 17 20
M  V30 20 1 18 21
M  V30 21 1 19 22
M  V30 22 1 19 23
M  V30 23 1 20 24
M  V30 24 1 21 25
M  V30 25 1 22 26
M  V30 26 1 23 27
M  V30 27 1 24 28
M  V30 28 1 24 29
M  V30 29 1 25 30
M  V30 30 2 25 31
M  V30 31 2 26 32
M  V30 32 1 28 33
M  V30 33 1 9 11
M  V30 34 1 19 20
M  V30 35 2 21 22
M  V30 36 1 26 29
M  V30 37 1 27 28
M  V30 38 1 31 32
M  V30 39 1 3 34
M  V30 40 1 4 35
M  V30 41 1 6 36
M  V30 42 1 7 37
M  V30 43 1 8 38
M  V30 44 1 9 39
M  V30 45 1 11 40
M  V30 46 1 12 41
M  V30 47 1 13 42
M  V30 48 1 14 43
M  V30 49 1 15 44
M  V30 50 1 16 45
M  V30 51 1 17 46
M  V30 52 1 20 47
M  V30 53 1 23 48
M  V30 54 1 23 49
M  V30 55 1 24 50
M  V30 56 1 27 51
M  V30 57 1 27 52
M  V30 58 1 29 53
M  V30 59 1 29 54
M  V30 60 1 30 55
M  V30 61 1 31 56
M  V30 62 1 32 57
M  V30 63 1 33 58
M  V30 64 1 33 59
M  V30 65 1 33 60
M  V30 END BOND
M  V30 BEGIN COLLECTION
M  V30 MDLV30/STEABS ATOMS=(9 4 6 9 11 13 16 19 20 24)
M  V30 END COLLECTION
M  V30 END CTAB
M  END
>  <level_0>
6

>  <index>
6

>  <NO.>
7

>  <Name>
morphine-6-glucuronide

>  <SMILES>
CN1CC[C@]23c4c5ccc(O)c4O[C@H]2[C@@H](OC2O[C@H](C(=O)O)[C@@H](O)[C@H](O)[C@H]2O)C=C[C@H]3[C@H]1C5

>  <logBB>
-2.09

>  <Class>
-1

>  <MW>
461.17

>  <nHBAcc>
9

>  <nHBDon>
5

>  <SLogP>
-0.89

>  <TopoPSA>
149.15

>  <MMFF94 Energy>
180.1

$$$$
O=c1[nH]c2cc(Cl)ccc2c(O)c1-c1cccc(Oc2ccccc2)c1
Actelion Java MolfileCreator 2.0

  0  0  0  0  0  0              0 V3000
M  V30 BEGIN CTAB
M  V30 COUNTS 40 43 0 0 0
M  V30 BEGIN ATOM
M  V30 1 Cl -6.9145 -3.9002 2.4363 0
M  V30 2 C -5.7265 -2.8571 1.757 0
M  V30 3 C -4.4288 -3.3239 1.5606 0
M  V30 4 C -6.0707 -1.5527 1.4081 0
M  V30 5 C -3.473 -2.4692 1.0085 0
M  V30 6 C -5.107 -0.7036 0.8559 0
M  V30 7 N -2.1702 -2.9334 0.8104 0
M  V30 8 C -3.7956 -1.1534 0.6497 0
M  V30 9 C -1.164 -2.1768 0.2753 0
M  V30 10 C -2.7455 -0.2963 0.0717 0
M  V30 11 O -0.0397 -2.6494 0.1298 0
M  V30 12 C -1.4942 -0.7668 -0.1189 0
M  V30 13 O -3.1506 0.9897 -0.2407 0
M  V30 14 C -0.4383 0.0776 -0.7028 0
M  V30 15 C 0.4794 0.7306 0.1277 0
M  V30 16 C -0.3641 0.2583 -2.0915 0
M  V30 17 C 1.4708 1.5371 -0.4313 0
M  V30 18 C 0.615 1.0868 -2.6434 0
M  V30 19 O 2.3288 2.1752 0.4345 0
M  V30 20 C 1.5292 1.734 -1.8129 0
M  V30 21 C 3.6777 2.0313 0.1965 0
M  V30 22 C 4.2692 0.8021 -0.1069 0
M  V30 23 C 4.4676 3.1726 0.3418 0
M  V30 24 C 5.6492 0.7266 -0.3019 0
M  V30 25 C 5.8469 3.0942 0.1463 0
M  V30 26 C 6.4363 1.8723 -0.179 0
M  V30 27 H -4.1716 -4.342 1.8365 0
M  V30 28 H -7.0834 -1.1883 1.5618 0
M  V30 29 H -5.3891 0.3127 0.5882 0
M  V30 30 H -1.9153 -3.8786 1.0651 0
M  V30 31 H -2.3858 1.4948 -0.5693 0
M  V30 32 H 0.4398 0.6038 1.207 0
M  V30 33 H -1.0664 -0.2475 -2.7516 0
M  V30 34 H 0.6674 1.2255 -3.7204 0
M  V30 35 H 2.2848 2.3849 -2.2449 0
M  V30 36 H 3.6685 -0.1002 -0.1852 0
M  V30 37 H 4.0084 4.1219 0.6034 0
M  V30 38 H 6.1105 -0.2277 -0.5425 0
M  V30 39 H 6.462 3.9839 0.2526 0
M  V30 40 H 7.5113 1.8104 -0.3284 0
M  V30 END ATOM
M  V30 BEGIN BOND
M  V30 1 1 1 2
M  V30 2 2 2 3
M  V30 3 1 2 4
M  V30 4 1 3 5
M  V30 5 2 4 6
M  V30 6 1 5 7
M  V30 7 2 5 8
M  V30 8 1 7 9
M  V30 9 1 8 10
M  V30 10 2 9 11
M  V30 11 1 9 12
M  V30 12 1 10 13
M  V30 13 1 12 14
M  V30 14 2 14 15
M  V30 15 1 14 16
M  V30 16 1 15 17
M  V30 17 2 16 18
M  V30 18 1 17 19
M  V30 19 2 17 20
M  V30 20 1 19 21
M  V30 21 2 21 22
M  V30 22 1 21 23
M  V30 23 1 22 24
M  V30 24 2 23 25
M  V30 25 2 24 26
M  V30 26 1 6 8
M  V30 27 2 10 12
M  V30 28 1 18 20
M  V30 29 1 25 26
M  V30 30 1 3 27
M  V30 31 1 4 28
M  V30 32 1 6 29
M  V30 33 1 7 30
M  V30 34 1 13 31
M  V30 35 1 15 32
M  V30 36 1 16 33
M  V30 37 1 18 34
M  V30 38 1 20 35
M  V30 39 1 22 36
M  V30 40 1 23 37
M  V30 41 1 24 38
M  V30 42 1 25 39
M  V30 43 1 26 40
M  V30 END BOND
M  V30 END CTAB
M  END
>  <level_0>
8

>  <index>
8

>  <NO.>
9

>  <Name>
l-701,324

>  <SMILES>
O=c1[nH]c2cc(Cl)ccc2c(O)c1-c1cccc(Oc2ccccc2)c1

>  <logBB>
-2.03

>  <Class>
-1

>  <MW>
363.07

>  <nHBAcc>
3

>  <nHBDon>
2

>  <SLogP>
5.35

>  <TopoPSA>
62.32

>  <MMFF94 Energy>
58.386

$$$$
COc1cc(C2c3cc4c(cc3C(OC3OC5COC(C)OC5C(O)C3O)C3COC(=O)C23)OCO4)cc(OC)c1O
Actelion Java MolfileCreator 2.0

  0  0  0  0  0  0              0 V3000
M  V30 BEGIN CTAB
M  V30 COUNTS 74 80 0 0 0
M  V30 BEGIN ATOM
M  V30 1 O 1.7025 4.4638 0.3241 0
M  V30 2 C 1.3396 3.4216 0.8473 0
M  V30 3 O 1.161 3.2642 2.1889 0
M  V30 4 C 1.0721 2.1349 0.1122 0
M  V30 5 C 0.8592 1.8956 2.47 0
M  V30 6 C 2.4128 1.5541 -0.3834 0
M  V30 7 C 0.3242 1.3437 1.1644 0
M  V30 8 C 2.81 0.211 0.2238 0
M  V30 9 C 2.4138 1.5484 -1.917 0
M  V30 10 C 0.4242 -0.1677 1.0147 0
M  V30 11 C 1.8676 -0.6161 0.8916 0
M  V30 12 C 4.1478 -0.2169 0.091 0
M  V30 13 C 2.7791 2.7294 -2.5967 0
M  V30 14 C 2.0141 0.4255 -2.6645 0
M  V30 15 O -0.1778 -0.7662 2.16 0
M  V30 16 C 2.272 -1.8698 1.3901 0
M  V30 17 C 4.5011 -1.4434 0.6069 0
M  V30 18 C 2.7611 2.7958 -3.992 0
M  V30 19 C 2.01 0.4691 -4.0585 0
M  V30 20 C -1.4713 -1.318 1.9084 0
M  V30 21 C 3.5875 -2.2486 1.2365 0
M  V30 22 O 5.7393 -2.0011 0.5573 0
M  V30 23 O 3.0943 3.8985 -4.7319 0
M  V30 24 C 2.3793 1.6562 -4.7065 0
M  V30 25 O 1.6573 -0.5619 -4.8937 0
M  V30 26 O -2.3505 -0.3418 1.3303 0
M  V30 27 C -2.0392 -1.874 3.239 0
M  V30 28 O 4.1324 -3.4188 1.6631 0
M  V30 29 C 5.5035 -3.2459 1.247 0
M  V30 30 C 3.3706 5.1006 -4.0266 0
M  V30 31 O 2.3586 1.6904 -6.0811 0
M  V30 32 C 1.4433 -1.8309 -4.2868 0
M  V30 33 C -3.6401 -0.8888 1.0691 0
M  V30 34 O -2.115 -0.841 4.2431 0
M  V30 35 C -3.4525 -2.4223 3.0174 0
M  V30 36 C -4.3237 -1.3523 2.3549 0
M  V30 37 C -4.5609 0.1301 0.4081 0
M  V30 38 O -4.0192 -2.7956 4.2832 0
M  V30 39 O -5.6163 -1.8917 2.0604 0
M  V30 40 O -5.8484 -0.4505 0.1992 0
M  V30 41 C -6.4272 -0.8964 1.4255 0
M  V30 42 C -7.7732 -1.5243 1.1092 0
M  V30 43 H 0.3835 2.3619 -0.7118 0
M  V30 44 H 1.7732 1.409 2.8247 0
M  V30 45 H 0.1098 1.8505 3.2666 0
M  V30 46 H 3.2231 2.2351 -0.0793 0
M  V30 47 H -0.7344 1.6363 1.1182 0
M  V30 48 H -0.0778 -0.4875 0.091 0
M  V30 49 H 4.8906 0.3929 -0.4152 0
M  V30 50 H 3.0694 3.5957 -2.0071 0
M  V30 51 H 1.7134 -0.4764 -2.1431 0
M  V30 52 H 1.5785 -2.5313 1.8988 0
M  V30 53 H -1.3498 -2.1461 1.1971 0
M  V30 54 H -1.375 -2.6432 3.6481 0
M  V30 55 H 6.1471 -3.2841 2.1336 0
M  V30 56 H 5.7735 -4.0725 0.58 0
M  V30 57 H 2.5123 5.4133 -3.4225 0
M  V30 58 H 3.5602 5.8855 -4.7652 0
M  V30 59 H 4.2713 4.9981 -3.4127 0
M  V30 60 H 2.0673 0.8011 -6.3546 0
M  V30 61 H 2.3295 -2.163 -3.7355 0
M  V30 62 H 1.257 -2.5554 -5.0854 0
M  V30 63 H 0.5589 -1.8123 -3.6417 0
M  V30 64 H -3.5424 -1.7381 0.378 0
M  V30 65 H -2.6045 -1.2479 4.9862 0
M  V30 66 H -3.4215 -3.3277 2.3997 0
M  V30 67 H -4.4546 -0.5191 3.0596 0
M  V30 68 H -4.6532 1.0448 1.0069 0
M  V30 69 H -4.1556 0.4324 -0.5633 0
M  V30 70 H -4.9588 -2.9981 4.1021 0
M  V30 71 H -6.5765 -0.045 2.1023 0
M  V30 72 H -8.4336 -0.8064 0.6127 0
M  V30 73 H -8.2574 -1.8925 2.0191 0
M  V30 74 H -7.6509 -2.3788 0.4341 0
M  V30 END ATOM
M  V30 BEGIN BOND
M  V30 1 2 1 2
M  V30 2 1 2 3
M  V30 3 1 2 4
M  V30 4 1 3 5
M  V30 5 1 4 6
M  V30 6 1 4 7
M  V30 7 1 6 8
M  V30 8 1 6 9
M  V30 9 1 7 10
M  V30 10 2 8 11
M  V30 11 1 8 12
M  V30 12 2 9 13
M  V30 13 1 9 14
M  V30 14 1 10 15
M  V30 15 1 11 16
M  V30 16 2 12 17
M  V30 17 1 13 18
M  V30 18 2 14 19
M  V30 19 1 15 20
M  V30 20 2 16 21
M  V30 21 1 17 22
M  V30 22 1 18 23
M  V30 23 2 18 24
M  V30 24 1 19 25
M  V30 25 1 20 26
M  V30 26 1 20 27
M  V30 27 1 21 28
M  V30 28 1 22 29
M  V30 29 1 23 30
M  V30 30 1 24 31
M  V30 31 1 25 32
M  V30 32 1 26 33
M  V30 33 1 27 34
M  V30 34 1 27 35
M  V30 35 1 33 36
M  V30 36 1 33 37
M  V30 37 1 35 38
M  V30 38 1 36 39
M  V30 39 1 37 40
M  V30 40 1 39 41
M  V30 41 1 41 42
M  V30 42 1 5 7
M  V30 43 1 10 11
M  V30 44 1 17 21
M  V30 45 1 19 24
M  V30 46 1 28 29
M  V30 47 1 35 36
M  V30 48 1 40 41
M  V30 49 1 4 43
M  V30 50 1 5 44
M  V30 51 1 5 45
M  V30 52 1 6 46
M  V30 53 1 7 47
M  V30 54 1 10 48
M  V30 55 1 12 49
M  V30 56 1 13 50
M  V30 57 1 14 51
M  V30 58 1 16 52
M  V30 59 1 20 53
M  V30 60 1 27 54
M  V30 61 1 29 55
M  V30 62 1 29 56
M  V30 63 1 30 57
M  V30 64 1 30 58
M  V30 65 1 30 59
M  V30 66 1 31 60
M  V30 67 1 32 61
M  V30 68 1 32 62
M  V30 69 1 32 63
M  V30 70 1 33 64
M  V30 71 1 34 65
M  V30 72 1 35 66
M  V30 73 1 36 67
M  V30 74 1 37 68
M  V30 75 1 37 69
M  V30 76 1 38 70
M  V30 77 1 41 71
M  V30 78 1 42 72
M  V30 79 1 42 73
M  V30 80 1 42 74
M  V30 END BOND
M  V30 END CTAB
M  END
>  <level_0>
9

>  <index>
9

>  <NO.>
10

>  <Name>
33419-42-0

>  <SMILES>
COc1cc(C2c3cc4c(cc3C(OC3OC5COC(C)OC5C(O)C3O)C3COC(=O)C23)OCO4)cc(OC)c1O

>  <logBB>
-2.0

>  <Class>
-1

>  <MW>
588.18

>  <nHBAcc>
13

>  <nHBDon>
3

>  <SLogP>
1.34

>  <TopoPSA>
160.83

>  <MMFF94 Energy>
127.78

$$$$
COC1(NC(=O)C2SC(=C(C(N)=O)C(=O)O)S2)C(=O)N2C(C(=O)O)=C(CSc3nnnn3C)CSC21
Actelion Java MolfileCreator 2.0

  0  0  0  0  0  0              0 V3000
M  V30 BEGIN CTAB
M  V30 COUNTS 53 56 0 0 0
M  V30 BEGIN ATOM
M  V30 1 S 2.2822 -0.5913 -1.352 0
M  V30 2 C 0.7613 -0.1219 -0.4872 0
M  V30 3 C 1.701 -2.2716 -1.7328 0
M  V30 4 N 0.5786 -1.0162 0.6247 0
M  V30 5 C 0.8243 1.0814 0.5548 0
M  V30 6 C 1.0786 -3.0003 -0.5559 0
M  V30 7 C 0.5818 -2.3707 0.5353 0
M  V30 8 C 0.407 -0.0952 1.5989 0
M  V30 9 O 2.1321 1.6499 0.8411 0
M  V30 10 N -0.2611 2.0844 0.3272 0
M  V30 11 C 1.037 -4.5048 -0.7322 0
M  V30 12 C 0.045 -3.141 1.6921 0
M  V30 13 O 0.1 -0.2275 2.7603 0
M  V30 14 C 2.5776 2.7174 0.0213 0
M  V30 15 C -0.7154 2.9381 1.3229 0
M  V30 16 S 2.6299 -5.2311 -0.2458 0
M  V30 17 O 0.5937 -4.0533 2.2812 0
M  V30 18 O -1.2103 -2.7503 1.9782 0
M  V30 19 O -0.1997 2.928 2.4435 0
M  V30 20 C -1.8979 3.8935 0.9295 0
M  V30 21 C 2.2437 -6.9045 -0.3879 0
M  V30 22 S -1.2933 5.5878 0.5267 0
M  V30 23 S -2.5054 3.7189 -0.8016 0
M  V30 24 N 1.3321 -7.445 -1.1627 0
M  V30 25 N 2.8653 -7.8944 0.3126 0
M  V30 26 C -2.7754 5.4004 -0.3833 0
M  V30 27 N 1.4033 -8.7995 -0.9318 0
M  V30 28 N 2.3378 -9.0829 -0.0327 0
M  V30 29 C 3.9068 -7.8089 1.2967 0
M  V30 30 C -3.7547 6.2594 -0.7267 0
M  V30 31 C -4.9117 5.7318 -1.4635 0
M  V30 32 C -3.7461 7.6725 -0.2862 0
M  V30 33 O -5.4688 4.6621 -1.2901 0
M  V30 34 O -5.3098 6.5712 -2.4362 0
M  V30 35 O -4.785 8.266 -0.0137 0
M  V30 36 N -2.5543 8.3229 -0.2054 0
M  V30 37 H -0.1157 -0.0863 -1.146 0
M  V30 38 H 0.9753 -2.2195 -2.5519 0
M  V30 39 H 2.5743 -2.8173 -2.1032 0
M  V30 40 H -0.71 2.1589 -0.5787 0
M  V30 41 H 0.2291 -4.9587 -0.149 0
M  V30 42 H 0.8279 -4.7455 -1.7812 0
M  V30 43 H 2.3404 2.5364 -1.0306 0
M  V30 44 H 3.6616 2.808 0.1282 0
M  V30 45 H 2.1155 3.6529 0.3479 0
M  V30 46 H -1.4307 -3.2336 2.8012 0
M  V30 47 H -2.6989 3.8715 1.6807 0
M  V30 48 H 4.1506 -8.8107 1.6602 0
M  V30 49 H 4.7906 -7.363 0.8343 0
M  V30 50 H 3.5543 -7.1945 2.1289 0
M  V30 51 H -6.1058 6.1474 -2.8198 0
M  V30 52 H -1.6598 7.8854 -0.3827 0
M  V30 53 H -2.5666 9.2907 0.0905 0
M  V30 END ATOM
M  V30 BEGIN BOND
M  V30 1 1 1 2
M  V30 2 1 1 3
M  V30 3 1 2 4
M  V30 4 1 2 5
M  V30 5 1 3 6
M  V30 6 1 4 7
M  V30 7 1 4 8
M  V30 8 1 5 9
M  V30 9 1 5 10
M  V30 10 1 6 11
M  V30 11 1 7 12
M  V30 12 2 8 13
M  V30 13 1 9 14
M  V30 14 1 10 15
M  V30 15 1 11 16
M  V30 16 2 12 17
M  V30 17 1 12 18
M  V30 18 2 15 19
M  V30 19 1 15 20
M  V30 20 1 16 21
M  V30 21 1 20 22
M  V30 22 1 20 23
M  V30 23 2 21 24
M  V30 24 1 21 25
M  V30 25 1 22 26
M  V30 26 1 24 27
M  V30 27 1 25 28
M  V30 28 1 25 29
M  V30 29 2 26 30
M  V30 30 1 30 31
M  V30 31 1 30 32
M  V30 32 2 31 33
M  V30 33 1 31 34
M  V30 34 2 32 35
M  V30 35 1 32 36
M  V30 36 1 5 8
M  V30 37 2 6 7
M  V30 38 1 23 26
M  V30 39 2 27 28
M  V30 40 1 2 37
M  V30 41 1 3 38
M  V30 42 1 3 39
M  V30 43 1 10 40
M  V30 44 1 11 41
M  V30 45 1 11 42
M  V30 46 1 14 43
M  V30 47 1 14 44
M  V30 48 1 14 45
M  V30 49 1 18 46
M  V30 50 1 20 47
M  V30 51 1 29 48
M  V30 52 1 29 49
M  V30 53 1 29 50
M  V30 54 1 34 51
M  V30 55 1 36 52
M  V30 56 1 36 53
M  V30 END BOND
M  V30 END CTAB
M  END
>  <level_0>
13

>  <index>
13

>  <NO.>
14

>  <Name>
disodium;(6r,7s)-7-[[4-(2-amino-1-carboxylato-2-oxoethylidene)-1,3-dithietane-2-carbonyl]amino]-7-methoxy-3-[(1-methyltetrazol-5-yl)sulfanylmethyl]-8-oxo-5-thia-1-azabicyclo[4.2.0]oct-2-ene-2-carboxylate

>  <SMILES>
COC1(NC(=O)C2SC(=C(C(N)=O)C(=O)O)S2)C(=O)N2C(C(=O)O)=C(CSc3nnnn3C)CSC21

>  <logBB>
-1.89

>  <Class>
-1

>  <MW>
575.0

>  <nHBAcc>
13

>  <nHBDon>
4

>  <SLogP>
-1.4

>  <TopoPSA>
219.93

>  <MMFF94 Energy>
10.913

$$$$
CC(C)c1nc(CN(C)C(=O)N[C@@H](C)C(=O)C[C@@H](Cc2ccccc2)C[C@H](O)[C@H](Cc2ccccc2)NC(=O)OCc2cncs2)cs1
Actelion Java MolfileCreator 2.0

  0  0  0  0  0  0              0 V3000
M  V30 BEGIN CTAB
M  V30 COUNTS 93 96 0 0 0
M  V30 BEGIN ATOM
M  V30 1 S -5.5359 3.2063 -6.9034 0
M  V30 2 C -6.3069 2.4112 -5.5929 0
M  V30 3 C -6.5801 2.3896 -7.9912 0
M  V30 4 C -7.2978 1.5807 -6.079 0
M  V30 5 C -5.8935 2.6469 -4.1816 0
M  V30 6 N -7.4567 1.5722 -7.4512 0
M  V30 7 O -5.0522 1.548 -3.8272 0
M  V30 8 C -4.7193 1.5324 -2.5174 0
M  V30 9 O -5.0274 2.3849 -1.7002 0
M  V30 10 N -3.9839 0.4155 -2.2653 0
M  V30 11 C -3.6228 -0.0241 -0.91 0 CFG=2
M  V30 12 C -2.0879 -0.2547 -0.8539 0 CFG=1
M  V30 13 C -4.4306 -1.2831 -0.5177 0
M  V30 14 O -1.4262 0.9507 -1.2558 0
M  V30 15 C -1.575 -0.6618 0.5374 0
M  V30 16 C -5.927 -1.1515 -0.7054 0
M  V30 17 C -0.0511 -0.9553 0.5655 0 CFG=2
M  V30 18 C -6.662 -0.2132 0.0321 0
M  V30 19 C -6.601 -1.9693 -1.6233 0
M  V30 20 C 0.2789 -2.03 1.6353 0
M  V30 21 C 0.7538 0.3239 0.8683 0
M  V30 22 C -8.0395 -0.087 -0.1545 0
M  V30 23 C -7.9791 -1.8426 -1.807 0
M  V30 24 C -0.1817 -3.4188 1.2511 0
M  V30 25 C 2.2367 0.186 0.5505 0
M  V30 26 C -8.6977 -0.9007 -1.0739 0
M  V30 27 C -1.2133 -4.0534 1.9557 0
M  V30 28 C 0.4267 -4.0937 0.1838 0
M  V30 29 O 2.6831 -0.7491 -0.1199 0
M  V30 30 C 3.143 1.2997 1.0948 0 CFG=1
M  V30 31 C -1.6383 -5.3314 1.5888 0
M  V30 32 C 0.0012 -5.3714 -0.1812 0
M  V30 33 N 4.1967 0.684 1.8802 0
M  V30 34 C 3.7082 2.1026 -0.067 0
M  V30 35 C -1.0326 -5.9891 0.5197 0
M  V30 36 C 3.949 0.1655 3.1192 0
M  V30 37 O 2.8476 0.2862 3.6529 0
M  V30 38 N 5.0012 -0.5092 3.7053 0
M  V30 39 C 6.1904 -0.9515 2.9807 0
M  V30 40 C 4.8763 -0.9402 5.085 0
M  V30 41 C 7.2035 0.1505 2.9358 0
M  V30 42 N 7.0585 1.1533 1.9798 0
M  V30 43 C 8.3041 0.2956 3.758 0
M  V30 44 C 8.0328 2.0335 2.0929 0
M  V30 45 S 9.1755 1.7068 3.3371 0
M  V30 46 C 8.1775 3.2639 1.2344 0
M  V30 47 C 7.9689 2.9232 -0.2417 0
M  V30 48 C 7.1899 4.3412 1.6832 0
M  V30 49 H -6.5161 2.5436 -9.0603 0
M  V30 50 H -7.9385 0.9535 -5.4699 0
M  V30 51 H -5.3419 3.5881 -4.0742 0
M  V30 52 H -6.7823 2.6721 -3.5388 0
M  V30 53 H -3.8491 -0.2061 -3.0517 0
M  V30 54 H -3.8724 0.7932 -0.2218 0
M  V30 55 H -1.813 -1.0259 -1.5841 0
M  V30 56 H -4.2581 -1.5366 0.5346 0
M  V30 57 H -4.0674 -2.1382 -1.1029 0
M  V30 58 H -1.9511 1.3232 -1.9886 0
M  V30 59 H -2.1199 -1.5533 0.8558 0
M  V30 60 H -1.8061 0.1273 1.2641 0
M  V30 61 H 0.2446 -1.3358 -0.4202 0
M  V30 62 H -6.1664 0.437 0.7498 0
M  V30 63 H -6.059 -2.7113 -2.2049 0
M  V30 64 H -0.1623 -1.7394 2.5979 0
M  V30 65 H 1.3603 -2.0865 1.8122 0
M  V30 66 H 0.6457 0.583 1.9278 0
M  V30 67 H 0.396 1.1742 0.2822 0
M  V30 68 H -8.5976 0.6497 0.4174 0
M  V30 69 H -8.4924 -2.4806 -2.5217 0
M  V30 70 H -9.7705 -0.802 -1.2169 0
M  V30 71 H -1.6929 -3.5553 2.7951 0
M  V30 72 H 1.2416 -3.6235 -0.3648 0
M  V30 73 H 2.5609 1.9586 1.7486 0
M  V30 74 H -2.4395 -5.8156 2.1408 0
M  V30 75 H 0.4814 -5.8851 -1.0096 0
M  V30 76 H 5.1644 0.8433 1.6142 0
M  V30 77 H 2.9035 2.5329 -0.6726 0
M  V30 78 H 4.3384 2.9202 0.2966 0
M  V30 79 H 4.3229 1.478 -0.725 0
M  V30 80 H -1.3612 -6.9855 0.2374 0
M  V30 81 H 6.6013 -1.8441 3.4662 0
M  V30 82 H 5.9116 -1.2389 1.9604 0
M  V30 83 H 4.7397 -2.0255 5.1012 0
M  V30 84 H 5.7898 -0.6787 5.627 0
M  V30 85 H 4.0263 -0.4693 5.586 0
M  V30 86 H 8.6274 -0.3422 4.5679 0
M  V30 87 H 9.1923 3.6692 1.3378 0
M  V30 88 H 8.1185 3.8089 -0.8684 0
M  V30 89 H 8.6785 2.1554 -0.5697 0
M  V30 90 H 6.9583 2.5444 -0.4314 0
M  V30 91 H 7.3634 4.6213 2.7283 0
M  V30 92 H 6.1532 3.9963 1.6027 0
M  V30 93 H 7.295 5.2441 1.0726 0
M  V30 END ATOM
M  V30 BEGIN BOND
M  V30 1 1 1 2
M  V30 2 1 1 3
M  V30 3 2 2 4
M  V30 4 1 2 5
M  V30 5 2 3 6
M  V30 6 1 5 7
M  V30 7 1 7 8
M  V30 8 2 8 9
M  V30 9 1 8 10
M  V30 10 1 10 11
M  V30 11 1 11 12
M  V30 12 1 11 13
M  V30 13 1 12 14
M  V30 14 1 12 15
M  V30 15 1 13 16
M  V30 16 1 15 17
M  V30 17 2 16 18
M  V30 18 1 16 19
M  V30 19 1 17 20
M  V30 20 1 17 21
M  V30 21 1 18 22
M  V30 22 2 19 23
M  V30 23 1 20 24
M  V30 24 1 21 25
M  V30 25 2 22 26
M  V30 26 2 24 27
M  V30 27 1 24 28
M  V30 28 2 25 29
M  V30 29 1 25 30
M  V30 30 1 27 31
M  V30 31 2 28 32
M  V30 32 1 30 33
M  V30 33 1 30 34
M  V30 34 2 31 35
M  V30 35 1 33 36
M  V30 36 2 36 37
M  V30 37 1 36 38
M  V30 38 1 38 39
M  V30 39 1 38 40
M  V30 40 1 39 41
M  V30 41 1 41 42
M  V30 42 2 41 43
M  V30 43 2 42 44
M  V30 44 1 43 45
M  V30 45 1 44 46
M  V30 46 1 46 47
M  V30 47 1 46 48
M  V30 48 1 4 6
M  V30 49 1 23 26
M  V30 50 1 32 35
M  V30 51 1 44 45
M  V30 52 1 3 49
M  V30 53 1 4 50
M  V30 54 1 5 51
M  V30 55 1 5 52
M  V30 56 1 10 53
M  V30 57 1 11 54
M  V30 58 1 12 55
M  V30 59 1 13 56
M  V30 60 1 13 57
M  V30 61 1 14 58
M  V30 62 1 15 59
M  V30 63 1 15 60
M  V30 64 1 17 61
M  V30 65 1 18 62
M  V30 66 1 19 63
M  V30 67 1 20 64
M  V30 68 1 20 65
M  V30 69 1 21 66
M  V30 70 1 21 67
M  V30 71 1 22 68
M  V30 72 1 23 69
M  V30 73 1 26 70
M  V30 74 1 27 71
M  V30 75 1 28 72
M  V30 76 1 30 73
M  V30 77 1 31 74
M  V30 78 1 32 75
M  V30 79 1 33 76
M  V30 80 1 34 77
M  V30 81 1 34 78
M  V30 82 1 34 79
M  V30 83 1 35 80
M  V30 84 1 39 81
M  V30 85 1 39 82
M  V30 86 1 40 83
M  V30 87 1 40 84
M  V30 88 1 40 85
M  V30 89 1 43 86
M  V30 90 1 46 87
M  V30 91 1 47 88
M  V30 92 1 47 89
M  V30 93 1 47 90
M  V30 94 1 48 91
M  V30 95 1 48 92
M  V30 96 1 48 93
M  V30 END BOND
M  V30 BEGIN COLLECTION
M  V30 MDLV30/STEABS ATOMS=(4 11 12 17 30)
M  V30 END COLLECTION
M  V30 END CTAB
M  END
>  <level_0>
18

>  <index>
18

>  <NO.>
19

>  <Name>
ritonavir

>  <SMILES>
CC(C)c1nc(CN(C)C(=O)N[C@@H](C)C(=O)C[C@@H](Cc2ccccc2)C[C@H](O)[C@H](Cc2ccccc2)NC(=O)OCc2cncs2)cs1

>  <logBB>
-1.82

>  <Class>
-1

>  <MW>
691.29

>  <nHBAcc>
9

>  <nHBDon>
3

>  <SLogP>
6.36

>  <TopoPSA>
133.75

>  <MMFF94 Energy>
-42.479

$$$$
O=C(c1ccc(OCCN2CCCCC2)cc1)c1c(-c2ccc(O)cc2)sc2cc(O)ccc12
Actelion Java MolfileCreator 2.0

  0  0  0  0  0  0              0 V3000
M  V30 BEGIN CTAB
M  V30 COUNTS 61 65 0 0 0
M  V30 BEGIN ATOM
M  V30 1 S 5.0132 3.0703 -2.3425 0
M  V30 2 C 3.5909 2.2379 -2.8009 0
M  V30 3 C 4.2276 3.9068 -1.0668 0
M  V30 4 C 3.6585 1.2871 -3.9207 0
M  V30 5 C 2.5157 2.5853 -1.9956 0
M  V30 6 C 2.8751 3.5679 -0.9903 0
M  V30 7 C 4.8182 4.8352 -0.1839 0
M  V30 8 C 4.1173 1.691 -5.1848 0
M  V30 9 C 3.2441 -0.0422 -3.7484 0
M  V30 10 C 1.1731 2.0448 -2.1976 0
M  V30 11 C 2.0904 4.2132 0.0026 0
M  V30 12 C 4.0135 5.4316 0.7828 0
M  V30 13 C 4.1689 0.7871 -6.2501 0
M  V30 14 C 3.2974 -0.9469 -4.8115 0
M  V30 15 O 0.5592 2.2242 -3.2452 0
M  V30 16 C 0.5369 1.2566 -1.0992 0
M  V30 17 C 2.6673 5.1339 0.8816 0
M  V30 18 O 4.5259 6.3371 1.6656 0
M  V30 19 C 3.7584 -0.5259 -6.0519 0
M  V30 20 C -0.847 1.0413 -1.15 0
M  V30 21 C 1.2722 0.7066 -0.0429 0
M  V30 22 O 3.792 -1.4412 -7.0613 0
M  V30 23 C -1.4926 0.3031 -0.151 0
M  V30 24 C 0.6217 -0.0289 0.9526 0
M  V30 25 C -0.7595 -0.2337 0.9061 0
M  V30 26 O -1.2611 -0.9705 1.9422 0
M  V30 27 C -2.67 -1.2293 1.9365 0
M  V30 28 C -3.0067 -2.0562 3.1889 0
M  V30 29 N -4.4488 -2.2955 3.3805 0
M  V30 30 C -4.7392 -2.7912 4.7367 0
M  V30 31 C -5.0434 -3.1887 2.3744 0
M  V30 32 C -4.3095 -4.2411 4.975 0
M  V30 33 C -4.6293 -4.6556 2.5163 0
M  V30 34 C -4.9028 -5.1734 3.9244 0
M  V30 35 H 5.873 5.0725 -0.2713 0
M  V30 36 H 4.4245 2.7208 -5.3544 0
M  V30 37 H 2.8874 -0.3935 -2.7841 0
M  V30 38 H 1.0272 4.0008 0.0911 0
M  V30 39 H 4.5245 1.1278 -7.2171 0
M  V30 40 H 2.9776 -1.9753 -4.6711 0
M  V30 41 H 2.057 5.6183 1.6395 0
M  V30 42 H 5.4696 6.4639 1.4731 0
M  V30 43 H -1.4345 1.4493 -1.9714 0
M  V30 44 H 2.3497 0.8282 0.0271 0
M  V30 45 H 4.0965 -0.9979 -7.8699 0
M  V30 46 H -2.5664 0.1677 -0.2327 0
M  V30 47 H 1.1989 -0.4503 1.773 0
M  V30 48 H -2.9297 -1.7898 1.0322 0
M  V30 49 H -3.2232 -0.2827 1.9684 0
M  V30 50 H -2.4287 -2.9879 3.1726 0
M  V30 51 H -2.6189 -1.4929 4.0489 0
M  V30 52 H -5.8205 -2.7085 4.9089 0
M  V30 53 H -4.2771 -2.1392 5.4881 0
M  V30 54 H -4.8268 -2.8397 1.3595 0
M  V30 55 H -6.136 -3.123 2.4659 0
M  V30 56 H -4.634 -4.5605 5.9721 0
M  V30 57 H -3.216 -4.3181 4.9609 0
M  V30 58 H -3.5658 -4.7738 2.279 0
M  V30 59 H -5.1816 -5.2638 1.7908 0
M  V30 60 H -4.4919 -6.1821 4.041 0
M  V30 61 H -5.9864 -5.2495 4.0783 0
M  V30 END ATOM
M  V30 BEGIN BOND
M  V30 1 1 1 2
M  V30 2 1 1 3
M  V30 3 1 2 4
M  V30 4 2 2 5
M  V30 5 2 3 6
M  V30 6 1 3 7
M  V30 7 2 4 8
M  V30 8 1 4 9
M  V30 9 1 5 10
M  V30 10 1 6 11
M  V30 11 2 7 12
M  V30 12 1 8 13
M  V30 13 2 9 14
M  V30 14 2 10 15
M  V30 15 1 10 16
M  V30 16 2 11 17
M  V30 17 1 12 18
M  V30 18 2 13 19
M  V30 19 2 16 20
M  V30 20 1 16 21
M  V30 21 1 19 22
M  V30 22 1 20 23
M  V30 23 2 21 24
M  V30 24 2 23 25
M  V30 25 1 25 26
M  V30 26 1 26 27
M  V30 27 1 27 28
M  V30 28 1 28 29
M  V30 29 1 29 30
M  V30 30 1 29 31
M  V30 31 1 30 32
M  V30 32 1 31 33
M  V30 33 1 32 34
M  V30 34 1 5 6
M  V30 35 1 12 17
M  V30 36 1 14 19
M  V30 37 1 24 25
M  V30 38 1 33 34
M  V30 39 1 7 35
M  V30 40 1 8 36
M  V30 41 1 9 37
M  V30 42 1 11 38
M  V30 43 1 13 39
M  V30 44 1 14 40
M  V30 45 1 17 41
M  V30 46 1 18 42
M  V30 47 1 20 43
M  V30 48 1 21 44
M  V30 49 1 22 45
M  V30 50 1 23 46
M  V30 51 1 24 47
M  V30 52 1 27 48
M  V30 53 1 27 49
M  V30 54 1 28 50
M  V30 55 1 28 51
M  V30 56 1 30 52
M  V30 57 1 30 53
M  V30 58 1 31 54
M  V30 59 1 31 55
M  V30 60 1 32 56
M  V30 61 1 32 57
M  V30 62 1 33 58
M  V30 63 1 33 59
M  V30 64 1 34 60
M  V30 65 1 34 61
M  V30 END BOND
M  V30 END CTAB
M  END
>  <level_0>
22

>  <index>
22

>  <NO.>
23

>  <Name>
raloxifene

>  <SMILES>
O=C(c1ccc(OCCN2CCCCC2)cc1)c1c(-c2ccc(O)cc2)sc2cc(O)ccc12

>  <logBB>
-1.81

>  <Class>
-1

>  <MW>
473.17

>  <nHBAcc>
6

>  <nHBDon>
2

>  <SLogP>
6.08

>  <TopoPSA>
70.0

>  <MMFF94 Energy>
95.504

$$$$
OC[C@H]1O[C@H](O[C@]2(CO)O[C@H](CO)[C@@H](O)[C@@H]2O)[C@H](O)[C@@H](O)[C@@H]1O
Actelion Java MolfileCreator 2.0

  0  0  0  0  0  0              0 V3000
M  V30 BEGIN CTAB
M  V30 COUNTS 45 46 0 0 0
M  V30 BEGIN ATOM
M  V30 1 O 0.0 0.0 -1.9117 0
M  V30 2 C -0.6047 -0.4222 -0.689 0 CFG=2
M  V30 3 C 0.0367 -1.009 -2.9432 0 CFG=1
M  V30 4 O -0.7953 0.6766 0.1976 0
M  V30 5 C 0.0466 -1.6899 -0.0817 0 CFG=2
M  V30 6 C 0.669 -2.3221 -2.4454 0 CFG=2
M  V30 7 C -1.3437 -1.1818 -3.5941 0
M  V30 8 C 0.3207 1.4003 0.7341 0 CFG=2
M  V30 9 O 1.3904 -1.4747 0.3619 0
M  V30 10 C 0.0399 -2.8172 -1.1313 0 CFG=2
M  V30 11 O 2.0698 -2.0926 -2.1925 0
M  V30 12 O -1.7471 0.0565 -4.1824 0
M  V30 13 O 0.8558 0.7392 1.9071 0
M  V30 14 C -0.291 2.7189 1.2735 0 CFG=1
M  V30 15 C 1.4736 1.7149 -0.2429 0
M  V30 16 O -1.2826 -3.2932 -1.3698 0
M  V30 17 C 0.332 1.3921 3.0886 0 CFG=1
M  V30 18 O -1.3521 3.2484 0.4726 0
M  V30 19 C -0.8163 2.272 2.6257 0 CFG=1
M  V30 20 O 2.539 2.4148 0.4127 0
M  V30 21 C -0.079 0.3328 4.1062 0
M  V30 22 O -1.0452 3.3758 3.494 0
M  V30 23 O -0.8556 -0.6827 3.4693 0
M  V30 24 H -1.6363 -0.6973 -0.9325 0
M  V30 25 H 0.6993 -0.579 -3.7052 0
M  V30 26 H -0.5322 -1.9899 0.7974 0
M  V30 27 H 0.5927 -3.0956 -3.218 0
M  V30 28 H -1.3088 -1.9329 -4.3889 0
M  V30 29 H -2.1244 -1.4646 -2.8858 0
M  V30 30 H 1.9677 -1.5009 -0.4326 0
M  V30 31 H 0.6379 -3.6582 -0.7576 0
M  V30 32 H 2.4889 -1.8696 -3.0455 0
M  V30 33 H -1.5642 0.7543 -3.5247 0
M  V30 34 H 0.4526 3.5127 1.4099 0
M  V30 35 H 1.9226 0.8081 -0.6522 0
M  V30 36 H 1.1228 2.3219 -1.0837 0
M  V30 37 H -1.5436 -3.829 -0.5964 0
M  V30 38 H 1.1314 2.0062 3.5219 0
M  V30 39 H -1.8087 2.4688 0.0974 0
M  V30 40 H -1.7585 1.7206 2.5234 0
M  V30 41 H 2.824 1.8291 1.1408 0
M  V30 42 H 0.808 -0.1586 4.5192 0
M  V30 43 H -0.6554 0.7609 4.9314 0
M  V30 44 H -1.6006 4.0021 2.99 0
M  V30 45 H -0.297 -0.9713 2.7207 0
M  V30 END ATOM
M  V30 BEGIN BOND
M  V30 1 1 1 2
M  V30 2 1 1 3
M  V30 3 1 2 4
M  V30 4 1 2 5
M  V30 5 1 3 6
M  V30 6 1 3 7
M  V30 7 1 4 8
M  V30 8 1 5 9
M  V30 9 1 5 10
M  V30 10 1 6 11
M  V30 11 1 7 12
M  V30 12 1 8 13
M  V30 13 1 8 14
M  V30 14 1 8 15
M  V30 15 1 10 16
M  V30 16 1 13 17
M  V30 17 1 14 18
M  V30 18 1 14 19
M  V30 19 1 15 20
M  V30 20 1 17 21
M  V30 21 1 19 22
M  V30 22 1 21 23
M  V30 23 1 6 10
M  V30 24 1 17 19
M  V30 25 1 2 24
M  V30 26 1 3 25
M  V30 27 1 5 26
M  V30 28 1 6 27
M  V30 29 1 7 28
M  V30 30 1 7 29
M  V30 31 1 9 30
M  V30 32 1 10 31
M  V30 33 1 11 32
M  V30 34 1 12 33
M  V30 35 1 14 34
M  V30 36 1 15 35
M  V30 37 1 15 36
M  V30 38 1 16 37
M  V30 39 1 17 38
M  V30 40 1 18 39
M  V30 41 1 19 40
M  V30 42 1 20 41
M  V30 43 1 21 42
M  V30 44 1 21 43
M  V30 45 1 22 44
M  V30 46 1 23 45
M  V30 END BOND
M  V30 BEGIN COLLECTION
M  V30 MDLV30/STEABS ATOMS=(9 2 3 5 6 8 10 14 17 19)
M  V30 END COLLECTION
M  V30 END CTAB
M  END
>  <level_0>
26

>  <index>
26

>  <NO.>
27

>  <Name>
sucrose

>  <SMILES>
OC[C@H]1O[C@H](O[C@]2(CO)O[C@H](CO)[C@@H](O)[C@@H]2O)[C@H](O)[C@@H](O)[C@@H]1O

>  <logBB>
-1.7

>  <Class>
-1

>  <MW>
342.12

>  <nHBAcc>
11

>  <nHBDon>
8

>  <SLogP>
-5.4

>  <TopoPSA>
189.53

>  <MMFF94 Energy>
212.51

$$$$
OC[C@@H](O)[C@@H](O)[C@H](O)[C@H](O)CO
Actelion Java MolfileCreator 2.0

  0  0  0  0  0  0              0 V3000
M  V30 BEGIN CTAB
M  V30 COUNTS 26 25 0 0 0
M  V30 BEGIN ATOM
M  V30 1 O -0.542 -2.1696 0.3871 0
M  V30 2 C -0.4799 -0.813 -0.1099 0 CFG=1
M  V30 3 C -0.2008 0.0938 1.1166 0 CFG=2
M  V30 4 C 0.5247 -0.7285 -1.2708 0 CFG=2
M  V30 5 O -1.1999 -0.2312 2.1112 0
M  V30 6 C -0.1984 1.6145 0.8376 0 CFG=2
M  V30 7 O 0.487 0.5621 -1.8979 0
M  V30 8 C 0.2366 -1.7807 -2.3522 0
M  V30 9 O 1.0064 1.9945 0.1697 0
M  V30 10 C -0.2961 2.4462 2.1285 0
M  V30 11 O 1.1495 -1.5701 -3.4352 0
M  V30 12 O -1.5555 2.2946 2.7752 0
M  V30 13 H 0.3201 -2.3826 0.7907 0
M  V30 14 H -1.4856 -0.5809 -0.4823 0
M  V30 15 H 0.7639 -0.1966 1.551 0
M  V30 16 H 1.5465 -0.8765 -0.9019 0
M  V30 17 H -1.4085 -1.1807 1.9847 0
M  V30 18 H -1.0568 1.8722 0.2048 0
M  V30 19 H 0.804 0.41 -2.8166 0
M  V30 20 H 0.3447 -2.8059 -1.9859 0
M  V30 21 H -0.7716 -1.6507 -2.7581 0
M  V30 22 H 0.8888 1.733 -0.7702 0
M  V30 23 H 0.4976 2.1698 2.8316 0
M  V30 24 H -0.1596 3.5094 1.9026 0
M  V30 25 H 1.9645 -2.0626 -3.2301 0
M  V30 26 H -1.7003 1.3258 2.8439 0
M  V30 END ATOM
M  V30 BEGIN BOND
M  V30 1 1 1 2
M  V30 2 1 2 3
M  V30 3 1 2 4
M  V30 4 1 3 5
M  V30 5 1 3 6
M  V30 6 1 4 7
M  V30 7 1 4 8
M  V30 8 1 6 9
M  V30 9 1 6 10
M  V30 10 1 8 11
M  V30 11 1 10 12
M  V30 12 1 1 13
M  V30 13 1 2 14
M  V30 14 1 3 15
M  V30 15 1 4 16
M  V30 16 1 5 17
M  V30 17 1 6 18
M  V30 18 1 7 19
M  V30 19 1 8 20
M  V30 20 1 8 21
M  V30 21 1 9 22
M  V30 22 1 10 23
M  V30 23 1 10 24
M  V30 24 1 11 25
M  V30 25 1 12 26
M  V30 END BOND
M  V30 BEGIN COLLECTION
M  V30 MDLV30/STEABS ATOMS=(4 2 3 4 6)
M  V30 END COLLECTION
M  V30 END CTAB
M  END
>  <level_0>
29

>  <index>
29

>  <NO.>
30

>  <Name>
d-mannitol

>  <SMILES>
OC[C@@H](O)[C@@H](O)[C@H](O)[C@H](O)CO

>  <logBB>
-1.6

>  <Class>
-1

>  <MW>
182.08

>  <nHBAcc>
6

>  <nHBDon>
6

>  <SLogP>
-3.59

>  <TopoPSA>
121.38

>  <MMFF94 Energy>
99.449

$$$$
CC(=O)NC1C(O)OC(COS(=O)(=O)O)C(OC2OC(COS(=O)(=O)O)C(O)C(O)C2O)C1O
Actelion Java MolfileCreator 2.0

  0  0  0  0  0  0              0 V3000
M  V30 BEGIN CTAB
M  V30 COUNTS 59 60 0 0 0
M  V30 BEGIN ATOM
M  V30 1 S -0.4894 3.8389 -1.5505 0
M  V30 2 O -1.3728 4.7974 -2.1706 0
M  V30 3 O -0.0323 3.9775 -0.184 0
M  V30 4 O -1.1432 2.3667 -1.7118 0
M  V30 5 O 0.806 3.7299 -2.4967 0
M  V30 6 C -2.3999 2.1395 -1.0846 0
M  V30 7 C -2.6466 0.6388 -0.8882 0
M  V30 8 O -2.8513 0.0364 -2.1733 0
M  V30 9 C -1.4941 -0.0559 -0.146 0
M  V30 10 C -3.2086 -1.3466 -2.09 0
M  V30 11 O -1.3147 0.5459 1.1416 0
M  V30 12 C -1.8679 -1.5353 0.0393 0
M  V30 13 O -4.4832 -1.4554 -1.4656 0
M  V30 14 C -2.1569 -2.193 -1.3236 0
M  V30 15 C 0.0197 1.0062 1.3736 0
M  V30 16 O -0.8177 -2.24 0.7164 0
M  V30 17 N -0.9092 -2.3857 -2.0773 0
M  V30 18 O 0.907 -0.0988 1.5941 0
M  V30 19 C 0.0011 1.9577 2.5904 0
M  V30 20 C -0.8521 -3.0763 -3.2595 0
M  V30 21 C 2.2679 0.3353 1.7868 0
M  V30 22 O -0.4781 1.2891 3.7735 0
M  V30 23 C 1.4201 2.4523 2.8513 0
M  V30 24 O -1.8379 -3.5257 -3.8338 0
M  V30 25 C 0.5441 -3.241 -3.7923 0
M  V30 26 C 2.3727 1.2608 3.0119 0
M  V30 27 C 3.1611 -0.9016 1.9646 0
M  V30 28 O 1.4595 3.2363 4.0574 0
M  V30 29 O 3.705 1.7614 3.1614 0
M  V30 30 O 3.5367 -1.4538 0.7055 0
M  V30 31 S 2.539 -2.4867 -0.0426 0
M  V30 32 O 2.1126 -3.4877 0.9059 0
M  V30 33 O 1.6304 -1.7404 -0.885 0
M  V30 34 O 3.5545 -3.2583 -1.0249 0
M  V30 35 H 0.5008 3.6339 -3.4215 0
M  V30 36 H -3.1782 2.5657 -1.7273 0
M  V30 37 H -2.4332 2.6476 -0.1137 0
M  V30 38 H -3.5742 0.5578 -0.3057 0
M  V30 39 H -0.5713 0.0058 -0.7364 0
M  V30 40 H -3.3176 -1.7079 -3.1162 0
M  V30 41 H -2.75 -1.612 0.6871 0
M  V30 42 H -5.1288 -1.3739 -2.1884 0
M  V30 43 H -2.5577 -3.1994 -1.1474 0
M  V30 44 H 0.3659 1.5564 0.4925 0
M  V30 45 H -0.4995 -1.6428 1.425 0
M  V30 46 H -0.0348 -2.1596 -1.5985 0
M  V30 47 H -0.6847 2.7944 2.4195 0
M  V30 48 H 2.5944 0.8662 0.8823 0
M  V30 49 H -0.2206 1.8496 4.5303 0
M  V30 50 H 1.7697 3.0982 2.0367 0
M  V30 51 H 0.5061 -3.6549 -4.8035 0
M  V30 52 H 1.1042 -3.9221 -3.146 0
M  V30 53 H 1.05 -2.2721 -3.8273 0
M  V30 54 H 2.1311 0.7096 3.9293 0
M  V30 55 H 2.6743 -1.6604 2.5873 0
M  V30 56 H 4.1019 -0.6321 2.454 0
M  V30 57 H 1.0113 4.0809 3.861 0
M  V30 58 H 3.6513 2.4295 3.8748 0
M  V30 59 H 4.0118 -3.9409 -0.4937 0
M  V30 END ATOM
M  V30 BEGIN BOND
M  V30 1 2 1 2
M  V30 2 2 1 3
M  V30 3 1 1 4
M  V30 4 1 1 5
M  V30 5 1 4 6
M  V30 6 1 6 7
M  V30 7 1 7 8
M  V30 8 1 7 9
M  V30 9 1 8 10
M  V30 10 1 9 11
M  V30 11 1 9 12
M  V30 12 1 10 13
M  V30 13 1 10 14
M  V30 14 1 11 15
M  V30 15 1 12 16
M  V30 16 1 14 17
M  V30 17 1 15 18
M  V30 18 1 15 19
M  V30 19 1 17 20
M  V30 20 1 18 21
M  V30 21 1 19 22
M  V30 22 1 19 23
M  V30 23 2 20 24
M  V30 24 1 20 25
M  V30 25 1 21 26
M  V30 26 1 21 27
M  V30 27 1 23 28
M  V30 28 1 26 29
M  V30 29 1 27 30
M  V30 30 1 30 31
M  V30 31 2 31 32
M  V30 32 2 31 33
M  V30 33 1 31 34
M  V30 34 1 12 14
M  V30 35 1 23 26
M  V30 36 1 5 35
M  V30 37 1 6 36
M  V30 38 1 6 37
M  V30 39 1 7 38
M  V30 40 1 9 39
M  V30 41 1 10 40
M  V30 42 1 12 41
M  V30 43 1 13 42
M  V30 44 1 14 43
M  V30 45 1 15 44
M  V30 46 1 16 45
M  V30 47 1 17 46
M  V30 48 1 19 47
M  V30 49 1 21 48
M  V30 50 1 22 49
M  V30 51 1 23 50
M  V30 52 1 25 51
M  V30 53 1 25 52
M  V30 54 1 25 53
M  V30 55 1 26 54
M  V30 56 1 27 55
M  V30 57 1 27 56
M  V30 58 1 28 57
M  V30 59 1 29 58
M  V30 60 1 34 59
M  V30 END BOND
M  V30 END CTAB
M  END
>  <level_0>
33

>  <index>
33

>  <NO.>
34

>  <Name>
l4

>  <SMILES>
CC(=O)NC1C(O)OC(COS(=O)(=O)O)C(OC2OC(COS(=O)(=O)O)C(O)C(O)C2O)C1O

>  <logBB>
-1.54

>  <Class>
-1

>  <MW>
543.06

>  <nHBAcc>
15

>  <nHBDon>
8

>  <SLogP>
-5.6

>  <TopoPSA>
285.14

>  <MMFF94 Energy>
-93.708

$$$$
CN(Cc1cnc2nc(N)nc(N)c2n1)c1ccc(C(=O)NC(CCC(=O)O)C(=O)O)cc1
Actelion Java MolfileCreator 2.0

  0  0  0  0  0  0              0 V3000
M  V30 BEGIN CTAB
M  V30 COUNTS 55 57 0 0 0
M  V30 BEGIN ATOM
M  V30 1 O 0.2371 1.1071 -4.2755 0
M  V30 2 C -0.0996 1.0467 -3.0984 0
M  V30 3 N -1.0518 1.8737 -2.5501 0
M  V30 4 C 0.5435 0.0656 -2.1823 0
M  V30 5 C -1.7418 2.9005 -3.3312 0 CFG=2
M  V30 6 C 1.8177 -0.4024 -2.4965 0
M  V30 7 C -0.0876 -0.4241 -1.0406 0
M  V30 8 C -1.9981 4.0797 -2.3956 0
M  V30 9 C -3.0772 2.4009 -3.8872 0
M  V30 10 C 2.46 -1.3285 -1.6614 0
M  V30 11 C 0.5674 -1.3528 -0.2154 0
M  V30 12 O -2.1065 4.0186 -1.1788 0
M  V30 13 O -2.1441 5.2529 -3.0408 0
M  V30 14 C -2.9123 1.3523 -4.9811 0
M  V30 15 C 1.8612 -1.8309 -0.4919 0
M  V30 16 C -4.2446 1.0191 -5.5832 0
M  V30 17 N 2.5119 -2.7429 0.3342 0
M  V30 18 O -4.7448 1.5406 -6.5652 0
M  V30 19 O -4.9088 0.0745 -4.8912 0
M  V30 20 C 1.9128 -3.2408 1.5838 0
M  V30 21 C 3.7975 -3.3134 -0.0602 0
M  V30 22 C 1.8784 -2.2111 2.6933 0
M  V30 23 N 0.7557 -2.1131 3.4449 0
M  V30 24 C 2.9725 -1.4149 2.9782 0
M  V30 25 C 0.7766 -1.1957 4.4639 0
M  V30 26 N 2.9883 -0.5131 3.9904 0
M  V30 27 C 1.8879 -0.3905 4.7406 0
M  V30 28 C -0.3004 -0.9688 5.3135 0
M  V30 29 N 1.9145 0.5034 5.7232 0
M  V30 30 N -0.2898 -0.076 6.3149 0
M  V30 31 N -1.461 -1.7254 5.2002 0
M  V30 32 C 0.8264 0.6282 6.4733 0
M  V30 33 N 0.8564 1.5449 7.4813 0
M  V30 34 H -1.2134 1.8801 -1.5485 0
M  V30 35 H -1.0759 3.2387 -4.1334 0
M  V30 36 H 2.3255 -0.048 -3.3915 0
M  V30 37 H -1.0977 -0.1245 -0.7783 0
M  V30 38 H -3.6925 1.9901 -3.0752 0
M  V30 39 H -3.6455 3.25 -4.2902 0
M  V30 40 H 3.4553 -1.6432 -1.9621 0
M  V30 41 H 0.015 -1.6974 0.6546 0
M  V30 42 H -2.3011 5.9087 -2.329 0
M  V30 43 H -2.2618 1.7167 -5.7841 0
M  V30 44 H -2.4629 0.4294 -4.5997 0
M  V30 45 H -5.7461 -0.0371 -5.3885 0
M  V30 46 H 0.9035 -3.6256 1.3904 0
M  V30 47 H 2.4747 -4.1019 1.9672 0
M  V30 48 H 4.5592 -2.5317 -0.1545 0
M  V30 49 H 3.7091 -3.855 -1.0083 0
M  V30 50 H 4.1744 -4.0262 0.6812 0
M  V30 51 H 3.8855 -1.4687 2.3946 0
M  V30 52 H -1.6535 -2.1575 4.3067 0
M  V30 53 H -2.2103 -1.488 5.8335 0
M  V30 54 H 0.0417 1.644 8.0609 0
M  V30 55 H 1.6987 2.0785 7.6102 0
M  V30 END ATOM
M  V30 BEGIN BOND
M  V30 1 2 1 2
M  V30 2 1 2 3
M  V30 3 1 2 4
M  V30 4 1 3 5
M  V30 5 2 4 6
M  V30 6 1 4 7
M  V30 7 1 5 8
M  V30 8 1 5 9
M  V30 9 1 6 10
M  V30 10 2 7 11
M  V30 11 2 8 12
M  V30 12 1 8 13
M  V30 13 1 9 14
M  V30 14 2 10 15
M  V30 15 1 14 16
M  V30 16 1 15 17
M  V30 17 2 16 18
M  V30 18 1 16 19
M  V30 19 1 17 20
M  V30 20 1 17 21
M  V30 21 1 20 22
M  V30 22 2 22 23
M  V30 23 1 22 24
M  V30 24 1 23 25
M  V30 25 2 24 26
M  V30 26 1 25 27
M  V30 27 2 25 28
M  V30 28 2 27 29
M  V30 29 1 28 30
M  V30 30 1 28 31
M  V30 31 1 29 32
M  V30 32 1 32 33
M  V30 33 1 11 15
M  V30 34 1 26 27
M  V30 35 2 30 32
M  V30 36 1 3 34
M  V30 37 1 5 35
M  V30 38 1 6 36
M  V30 39 1 7 37
M  V30 40 1 9 38
M  V30 41 1 9 39
M  V30 42 1 10 40
M  V30 43 1 11 41
M  V30 44 1 13 42
M  V30 45 1 14 43
M  V30 46 1 14 44
M  V30 47 1 19 45
M  V30 48 1 20 46
M  V30 49 1 20 47
M  V30 50 1 21 48
M  V30 51 1 21 49
M  V30 52 1 21 50
M  V30 53 1 24 51
M  V30 54 1 31 52
M  V30 55 1 31 53
M  V30 56 1 33 54
M  V30 57 1 33 55
M  V30 END BOND
M  V30 BEGIN COLLECTION
M  V30 MDLV30/STERAC1 ATOMS=(1 5)
M  V30 END COLLECTION
M  V30 END CTAB
M  END
>  <level_0>
40

>  <index>
40

>  <NO.>
41

>  <Name>
amethopterin

>  <SMILES>
CN(Cc1cnc2nc(N)nc(N)c2n1)c1ccc(C(=O)NC(CCC(=O)O)C(=O)O)cc1

>  <logBB>
-1.52

>  <Class>
-1

>  <MW>
454.17

>  <nHBAcc>
10

>  <nHBDon>
5

>  <SLogP>
0.27

>  <TopoPSA>
210.54

>  <MMFF94 Energy>
-18.946

$$$$
CO[C@H]1/C=C/O[C@@]2(C)Oc3c(C)c(O)c4c(O)c(c(/C=N/N5CCN(C)CC5)c(O)c4c3C2=O)NC(=O)C/C(C)=C\C=C\[C@@H](C)C(O)[C@@H](C)[C@H](O)[C@H](C)[C@H](OC(C)=O)[C@@H]1C
Actelion Java MolfileCreator 2.0

  0  0  0  0  0  0              0 V3000
M  V30 BEGIN CTAB
M  V30 COUNTS 120 124 0 0 0
M  V30 BEGIN ATOM
M  V30 1 O -0.8735 -5.4892 3.4181 0
M  V30 2 C -0.4821 -4.5121 2.7731 0
M  V30 3 N 0.7879 -4.0433 2.9974 0
M  V30 4 C -1.403 -3.7944 1.7824 0
M  V30 5 C 1.412 -2.9506 2.3672 0
M  V30 6 C -2.362 -2.844 2.4735 0
M  V30 7 C 1.4874 -1.7492 3.0891 0
M  V30 8 C 1.9472 -3.0114 1.0826 0
M  V30 9 C -2.384 -1.501 2.344 0
M  V30 10 C -3.385 -3.5187 3.3589 0
M  V30 11 O 0.9595 -1.7544 4.363 0
M  V30 12 C 2.0164 -0.5434 2.5449 0
M  V30 13 C 2.4542 -1.8346 0.4985 0
M  V30 14 C 1.9755 -4.2708 0.2949 0
M  V30 15 C -1.5114 -0.6893 1.5257 0
M  V30 16 C 2.0694 0.7033 3.2695 0
M  V30 17 C 2.4722 -0.5765 1.1942 0
M  V30 18 O 2.9012 -1.9754 -0.7932 0
M  V30 19 N 1.7856 -5.4332 0.8394 0
M  V30 20 C -1.3796 0.6467 1.5964 0
M  V30 21 O 1.7507 0.6849 4.6067 0
M  V30 22 C 2.4392 1.9249 2.6838 0
M  V30 23 C 2.8687 0.6756 0.6646 0
M  V30 24 N 1.8296 -6.4641 -0.0473 0
M  V30 25 C -2.1071 1.6094 2.514 0 CFG=2
M  V30 26 C 2.8004 1.8761 1.3538 0
M  V30 27 C 2.4439 3.223 3.4369 0
M  V30 28 C 3.41 1.0526 -0.6242 0
M  V30 29 C 0.951 -7.5996 0.3199 0
M  V30 30 C 3.1801 -7.0081 -0.3321 0
M  V30 31 C -2.0172 3.0797 2.0028 0
M  V30 32 C -1.5487 1.5253 3.943 0
M  V30 33 O 3.1343 2.9993 0.6413 0
M  V30 34 O 3.8006 0.25 -1.4574 0
M  V30 35 C 3.4195 2.5761 -0.7204 0 CFG=2
M  V30 36 C 0.9188 -8.6941 -0.7647 0
M  V30 37 C 3.154 -8.0978 -1.4228 0
M  V30 38 O -2.6124 3.9765 2.9529 0
M  V30 39 C -2.6215 3.3556 0.5882 0 CFG=2
M  V30 40 O 2.3969 3.0796 -1.5881 0
M  V30 41 C 4.8067 3.1278 -1.0474 0
M  V30 42 N 2.2622 -9.2177 -1.0738 0
M  V30 43 C -2.1976 4.784 0.1221 0 CFG=2
M  V30 44 C -4.1399 3.1491 0.5914 0
M  V30 45 C 2.4692 2.6986 -2.8948 0
M  V30 46 C 2.2042 -10.1973 -2.155 0
M  V30 47 O -2.7423 5.7765 1.0039 0
M  V30 48 C -2.4827 5.2562 -1.3318 0 CFG=1
M  V30 49 C 1.4941 2.8376 -3.8009 0
M  V30 50 C -1.898 4.3757 -2.4719 0 CFG=2
M  V30 51 C -3.9594 5.5956 -1.6006 0
M  V30 52 C 0.0923 3.3918 -3.7192 0 CFG=1
M  V30 53 O -2.5179 3.0652 -2.4294 0
M  V30 54 C -0.3482 4.1618 -2.4365 0 CFG=1
M  V30 55 O -0.0553 4.2866 -4.836 0
M  V30 56 C -3.47 2.7737 -3.3576 0
M  V30 57 C 0.3944 5.5023 -2.3108 0
M  V30 58 C -0.6499 3.6838 -5.9786 0
M  V30 59 O -3.8668 3.5192 -4.2399 0
M  V30 60 C -3.9582 1.3714 -3.1565 0
M  V30 61 H 1.37 -4.6639 3.5507 0
M  V30 62 H -1.9807 -4.5686 1.2605 0
M  V30 63 H -0.8218 -3.3101 0.9982 0
M  V30 64 H -3.1261 -0.9514 2.9216 0
M  V30 65 H -2.9055 -3.9605 4.2375 0
M  V30 66 H -3.9051 -4.3083 2.8067 0
M  V30 67 H -4.1474 -2.8194 3.7193 0
M  V30 68 H 0.5297 -2.6167 4.5029 0
M  V30 69 H 2.1688 -4.1877 -0.7903 0
M  V30 70 H -0.8864 -1.2051 0.8021 0
M  V30 71 H 3.3782 -1.1853 -1.1207 0
M  V30 72 H -0.6385 1.0928 0.9337 0
M  V30 73 H 1.6094 1.5765 4.9548 0
M  V30 74 H -3.1632 1.3246 2.5747 0
M  V30 75 H 3.0584 3.1369 4.3392 0
M  V30 76 H 1.4228 3.501 3.7165 0
M  V30 77 H 2.8599 4.0466 2.8484 0
M  V30 78 H -0.0711 -7.2275 0.4629 0
M  V30 79 H 1.2732 -8.0312 1.277 0
M  V30 80 H 3.8347 -6.198 -0.6757 0
M  V30 81 H 3.6238 -7.4107 0.5881 0
M  V30 82 H -0.9531 3.3503 1.9701 0
M  V30 83 H -1.47 0.4924 4.2965 0
M  V30 84 H -0.5578 1.9818 4.0064 0
M  V30 85 H -2.2002 2.0561 4.6458 0
M  V30 86 H 0.2825 -9.5129 -0.4075 0
M  V30 87 H 0.4475 -8.2858 -1.6692 0
M  V30 88 H 4.1755 -8.4741 -1.5557 0
M  V30 89 H 2.8477 -7.6427 -2.3747 0
M  V30 90 H -3.4985 3.6319 3.1717 0
M  V30 91 H -2.1777 2.6292 -0.0975 0
M  V30 92 H 5.1859 2.7676 -2.0082 0
M  V30 93 H 4.7801 4.2224 -1.0921 0
M  V30 94 H 5.5344 2.8483 -0.2769 0
M  V30 95 H -1.1109 4.8476 0.2565 0
M  V30 96 H -4.6648 3.9567 1.1109 0
M  V30 97 H -4.5289 3.0868 -0.4252 0
M  V30 98 H -4.4212 2.2067 1.0685 0
M  V30 99 H 3.4093 2.2537 -3.1993 0
M  V30 100 H 3.2005 -10.6069 -2.3549 0
M  V30 101 H 1.8153 -9.7683 -3.0855 0
M  V30 102 H 1.5668 -11.0425 -1.8728 0
M  V30 103 H -2.6046 5.4579 1.9212 0
M  V30 104 H -1.9925 6.2376 -1.4106 0
M  V30 105 H 1.7412 2.467 -4.7961 0
M  V30 106 H -2.1371 4.8741 -3.4205 0
M  V30 107 H -4.0502 6.1362 -2.5502 0
M  V30 108 H -4.5961 4.7151 -1.6782 0
M  V30 109 H -4.3731 6.2469 -0.8244 0
M  V30 110 H -0.573 2.5288 -3.8504 0
M  V30 111 H -0.1153 3.5323 -1.5691 0
M  V30 112 H 0.2697 5.9304 -1.3118 0
M  V30 113 H 1.4702 5.3952 -2.4728 0
M  V30 114 H 0.0235 6.2336 -3.0371 0
M  V30 115 H -1.6605 3.3376 -5.7498 0
M  V30 116 H -0.7124 4.437 -6.7686 0
M  V30 117 H -0.042 2.85 -6.3409 0
M  V30 118 H -3.1421 0.6676 -3.3373 0
M  V30 119 H -4.35 1.2531 -2.1434 0
M  V30 120 H -4.7653 1.1639 -3.8648 0
M  V30 END ATOM
M  V30 BEGIN BOND
M  V30 1 2 1 2
M  V30 2 1 2 3
M  V30 3 1 2 4
M  V30 4 1 3 5
M  V30 5 1 4 6
M  V30 6 2 5 7
M  V30 7 1 5 8
M  V30 8 2 6 9
M  V30 9 1 6 10
M  V30 10 1 7 11
M  V30 11 1 7 12
M  V30 12 2 8 13
M  V30 13 1 8 14
M  V30 14 1 9 15
M  V30 15 2 12 16
M  V30 16 1 12 17
M  V30 17 1 13 18
M  V30 18 2 14 19
M  V30 19 2 15 20
M  V30 20 1 16 21
M  V30 21 1 16 22
M  V30 22 2 17 23
M  V30 23 1 19 24
M  V30 24 1 20 25
M  V30 25 2 22 26
M  V30 26 1 22 27
M  V30 27 1 23 28
M  V30 28 1 24 29
M  V30 29 1 24 30
M  V30 30 1 25 31
M  V30 31 1 25 32
M  V30 32 1 26 33
M  V30 33 2 28 34
M  V30 34 1 28 35
M  V30 35 1 29 36
M  V30 36 1 30 37
M  V30 37 1 31 38
M  V30 38 1 31 39
M  V30 39 1 35 40
M  V30 40 1 35 41
M  V30 41 1 36 42
M  V30 42 1 39 43
M  V30 43 1 39 44
M  V30 44 1 40 45
M  V30 45 1 42 46
M  V30 46 1 43 47
M  V30 47 1 43 48
M  V30 48 2 45 49
M  V30 49 1 48 50
M  V30 50 1 48 51
M  V30 51 1 49 52
M  V30 52 1 50 53
M  V30 53 1 50 54
M  V30 54 1 52 55
M  V30 55 1 53 56
M  V30 56 1 54 57
M  V30 57 1 55 58
M  V30 58 2 56 59
M  V30 59 1 56 60
M  V30 60 1 13 17
M  V30 61 1 23 26
M  V30 62 1 33 35
M  V30 63 1 37 42
M  V30 64 1 52 54
M  V30 65 1 3 61
M  V30 66 1 4 62
M  V30 67 1 4 63
M  V30 68 1 9 64
M  V30 69 1 10 65
M  V30 70 1 10 66
M  V30 71 1 10 67
M  V30 72 1 11 68
M  V30 73 1 14 69
M  V30 74 1 15 70
M  V30 75 1 18 71
M  V30 76 1 20 72
M  V30 77 1 21 73
M  V30 78 1 25 74
M  V30 79 1 27 75
M  V30 80 1 27 76
M  V30 81 1 27 77
M  V30 82 1 29 78
M  V30 83 1 29 79
M  V30 84 1 30 80
M  V30 85 1 30 81
M  V30 86 1 31 82
M  V30 87 1 32 83
M  V30 88 1 32 84
M  V30 89 1 32 85
M  V30 90 1 36 86
M  V30 91 1 36 87
M  V30 92 1 37 88
M  V30 93 1 37 89
M  V30 94 1 38 90
M  V30 95 1 39 91
M  V30 96 1 41 92
M  V30 97 1 41 93
M  V30 98 1 41 94
M  V30 99 1 43 95
M  V30 100 1 44 96
M  V30 101 1 44 97
M  V30 102 1 44 98
M  V30 103 1 45 99
M  V30 104 1 46 100
M  V30 105 1 46 101
M  V30 106 1 46 102
M  V30 107 1 47 103
M  V30 108 1 48 104
M  V30 109 1 49 105
M  V30 110 1 50 106
M  V30 111 1 51 107
M  V30 112 1 51 108
M  V30 113 1 51 109
M  V30 114 1 52 110
M  V30 115 1 54 111
M  V30 116 1 57 112
M  V30 117 1 57 113
M  V30 118 1 57 114
M  V30 119 1 58 115
M  V30 120 1 58 116
M  V30 121 1 58 117
M  V30 122 1 60 118
M  V30 123 1 60 119
M  V30 124 1 60 120
M  V30 END BOND
M  V30 BEGIN COLLECTION
M  V30 MDLV30/STEABS ATOMS=(8 25 35 39 43 48 50 52 54)
M  V30 END COLLECTION
M  V30 END CTAB
M  END
>  <level_0>
41

>  <index>
41

>  <NO.>
42

>  <Name>
rifampicin

>  <SMILES>
CO[C@H]1/C=C/O[C@@]2(C)Oc3c(C)c(O)c4c(O)c(c(/C=N/N5CCN(C)CC5)c(O)c4c3C2=O)NC(=O)C/C(C)=C\C=C\[C@@H](C)C(O)[C@@H](C)[C@H](O)[C@H](C)[C@H](OC(C)=O)[C@@H]1C

>  <logBB>
-1.52

>  <Class>
-1

>  <MW>
836.42

>  <nHBAcc>
15

>  <nHBDon>
6

>  <SLogP>
4.73

>  <TopoPSA>
220.15

>  <MMFF94 Energy>
265.13

$$$$
Nc1ccn([C@@H]2CC[C@@H](CO)O2)c(=O)n1
Actelion Java MolfileCreator 2.0

  0  0  0  0  0  0              0 V3000
M  V30 BEGIN CTAB
M  V30 COUNTS 28 29 0 0 0
M  V30 BEGIN ATOM
M  V30 1 O 0.0 -1.5793 1.5003 0
M  V30 2 C -1.0127 -1.1017 0.9967 0
M  V30 3 N -2.2469 -1.4372 1.5053 0
M  V30 4 N -0.9577 -0.2359 -0.1013 0
M  V30 5 C -3.3221 -0.9177 1.0057 0
M  V30 6 C -2.109 0.3274 -0.6139 0
M  V30 7 C 0.3258 0.1611 -0.67 0 CFG=1
M  V30 8 N -4.5066 -1.2888 1.562 0
M  V30 9 C -3.3086 0.0371 -0.1154 0
M  V30 10 O 0.9573 1.1075 0.2038 0
M  V30 11 C 1.3269 -0.946 -0.9906 0
M  V30 12 C 2.3511 0.758 0.3248 0 CFG=1
M  V30 13 C 2.4713 -0.7107 -0.0312 0
M  V30 14 C 3.1491 1.6672 -0.617 0
M  V30 15 O 2.9543 3.0324 -0.2491 0
M  V30 16 H -2.0072 1.0293 -1.4356 0
M  V30 17 H 0.1283 0.6953 -1.6084 0
M  V30 18 H -4.4727 -1.9401 2.3368 0
M  V30 19 H -5.4032 -0.9376 1.2619 0
M  V30 20 H -4.2294 0.4616 -0.4854 0
M  V30 21 H 1.6908 -0.8128 -2.0173 0
M  V30 22 H 0.9152 -1.9581 -0.9374 0
M  V30 23 H 2.6535 0.9518 1.3594 0
M  V30 24 H 3.4447 -0.9799 -0.4523 0
M  V30 25 H 2.3365 -1.3188 0.8687 0
M  V30 26 H 4.2195 1.4478 -0.5682 0
M  V30 27 H 2.8138 1.5633 -1.6537 0
M  V30 28 H 2.0169 3.1061 0.0178 0
M  V30 END ATOM
M  V30 BEGIN BOND
M  V30 1 2 1 2
M  V30 2 1 2 3
M  V30 3 1 2 4
M  V30 4 2 3 5
M  V30 5 1 4 6
M  V30 6 1 4 7
M  V30 7 1 5 8
M  V30 8 1 5 9
M  V30 9 1 7 10
M  V30 10 1 7 11
M  V30 11 1 10 12
M  V30 12 1 11 13
M  V30 13 1 12 14
M  V30 14 1 14 15
M  V30 15 2 6 9
M  V30 16 1 12 13
M  V30 17 1 6 16
M  V30 18 1 7 17
M  V30 19 1 8 18
M  V30 20 1 8 19
M  V30 21 1 9 20
M  V30 22 1 11 21
M  V30 23 1 11 22
M  V30 24 1 12 23
M  V30 25 1 13 24
M  V30 26 1 13 25
M  V30 27 1 14 26
M  V30 28 1 14 27
M  V30 29 1 15 28
M  V30 END BOND
M  V30 BEGIN COLLECTION
M  V30 MDLV30/STEABS ATOMS=(2 7 12)
M  V30 END COLLECTION
M  V30 END CTAB
M  END
>  <level_0>
46

>  <index>
46

>  <NO.>
47

>  <Name>
.alpha.-d-ddc

>  <SMILES>
Nc1ccn([C@@H]2CC[C@@H](CO)O2)c(=O)n1

>  <logBB>
-1.5

>  <Class>
-1

>  <MW>
211.1

>  <nHBAcc>
5

>  <nHBDon>
2

>  <SLogP>
-0.5

>  <TopoPSA>
90.37

>  <MMFF94 Energy>
-63.357

$$$$
CN[C@H]1C(=O)N[C@@H]2Cc3ccc(cc3)Oc3cc4cc(c3O[C@@H]3O[C@H](CO)[C@@H](O)[C@H](O)[C@H]3NC(=O)CCCCCCCCC(C)C)Oc3ccc(cc3Cl)[C@@H](O)[C@@H]3NC(=O)[C@H](NC(=O)[C@@H]4NC(=O)[C@@H](NC2=O)c2cc(cc(O)c2Cl)Oc2cc1ccc2O)c1ccc(O)c(c1)-c1c(O[C@H]2O[C@H](CO)[C@@H](O)[C@H](O)[C@@H]2O)cc(O)cc1[C@@H](C(=O)NCCCN(C)C)NC3=O
Actelion Java MolfileCreator 2.0

  0  0  0  0  0  0              0 V3000
M  V30 BEGIN CTAB
M  V30 COUNTS 229 241 0 0 0
M  V30 BEGIN ATOM
M  V30 1 Cl 7.9769 -2.8146 2.1707 0
M  V30 2 C 7.2823 -1.4985 1.2878 0
M  V30 3 C 7.9078 -0.2388 1.3252 0
M  V30 4 C 6.1247 -1.6758 0.5138 0
M  V30 5 O 9.0393 -0.062 2.0775 0
M  V30 6 C 7.4214 0.8289 0.5692 0
M  V30 7 C 5.5838 -0.5552 -0.1483 0
M  V30 8 C 5.4774 -3.0313 0.2492 0 CFG=2
M  V30 9 C 6.2784 0.6512 -0.2006 0
M  V30 10 N 5.432 -3.1984 -1.2191 0
M  V30 11 C 4.1236 -3.1297 1.0137 0
M  V30 12 O 5.8909 1.6895 -1.0158 0
M  V30 13 C 5.4459 -4.4077 -1.8779 0
M  V30 14 O 4.0526 -3.023 2.2361 0
M  V30 15 N 2.9914 -3.2769 0.2368 0
M  V30 16 C 5.354 1.3638 -2.2476 0
M  V30 17 O 5.2344 -5.4672 -1.3028 0
M  V30 18 C 5.9231 -4.2736 -3.3549 0 CFG=2
M  V30 19 C 1.7001 -3.545 0.8805 0 CFG=1
M  V30 20 C 4.1832 2.0114 -2.6428 0
M  V30 21 C 5.9648 0.4374 -3.1073 0
M  V30 22 N 5.639 -2.9176 -3.8751 0
M  V30 23 C 5.3834 -5.3737 -4.2938 0
M  V30 24 C 1.1371 -2.3364 1.7142 0
M  V30 25 C 0.5954 -3.9949 -0.0944 0
M  V30 26 O 3.6181 2.9278 -1.8049 0
M  V30 27 C 3.5989 1.7203 -3.8706 0
M  V30 28 C 5.3718 0.1045 -4.337 0
M  V30 29 C 6.5616 -2.1914 -4.6076 0
M  V30 30 C 3.8721 -5.3884 -4.3713 0
M  V30 31 O 0.2716 -2.5 2.5782 0
M  V30 32 N 1.4369 -1.0693 1.2519 0
M  V30 33 C -0.6744 -4.2953 0.4231 0
M  V30 34 C 0.7367 -4.0737 -1.4834 0
M  V30 35 C 4.1904 0.7714 -4.7104 0
M  V30 36 C 5.9905 -0.9107 -5.2895 0 CFG=2
M  V30 37 O 7.7156 -2.5845 -4.7617 0
M  V30 38 C 3.1748 -4.4255 -5.1181 0
M  V30 39 C 3.1541 -6.3103 -3.5988 0
M  V30 40 C 0.4459 -0.0259 1.4365 0 CFG=1
M  V30 41 C -1.7788 -4.5032 -0.4146 0
M  V30 42 C -0.3244 -4.4995 -2.3195 0
M  V30 43 N 6.9401 -0.3323 -6.2662 0
M  V30 44 C 1.7998 -4.2704 -4.9516 0
M  V30 45 C 1.7776 -6.18 -3.4572 0
M  V30 46 C 0.0336 0.3127 2.9234 0
M  V30 47 C 0.84 1.2542 0.7019 0
M  V30 48 O -3.0541 -4.448 0.1224 0
M  V30 49 C -1.6014 -4.6737 -1.7857 0
M  V30 50 O -0.1472 -4.7325 -3.6783 0
M  V30 51 C 8.0313 0.4339 -5.6751 0
M  V30 52 C 1.1282 -5.0964 -4.0548 0
M  V30 53 O 0.8109 0.2231 3.8802 0
M  V30 54 N -1.1951 0.8789 3.1782 0
M  V30 55 C 1.518 2.2764 1.3889 0
M  V30 56 C 0.3263 1.5151 -0.5736 0
M  V30 57 C -3.3255 -3.2131 0.692 0
M  V30 58 O -2.6723 -4.8713 -2.615 0
M  V30 59 C -2.1835 1.4547 2.2517 0 CFG=2
M  V30 60 C 1.3725 3.6172 1.0011 0
M  V30 61 C 0.347 2.8149 -1.0702 0
M  V30 62 C -3.4463 -3.0791 2.0767 0
M  V30 63 C -3.4181 -2.0847 -0.1292 0
M  V30 64 C -3.1221 -6.2334 -2.5879 0 CFG=2
M  V30 65 C -2.4104 2.9989 2.3019 0
M  V30 66 C -3.5704 0.7531 2.416 0 CFG=2
M  V30 67 C 1.6056 4.6991 2.0019 0
M  V30 68 C 0.8182 3.8579 -0.2696 0
M  V30 69 Cl -3.4348 -4.4568 3.115 0
M  V30 70 C -3.5379 -1.8043 2.6454 0
M  V30 71 C -3.544 -0.8168 0.4394 0
M  V30 72 O -2.408 -6.9612 -3.6018 0
M  V30 73 C -4.6525 -6.2821 -2.8669 0 CFG=2
M  V30 74 O -3.4029 3.4871 1.7432 0
M  V30 75 N -1.5076 3.8995 2.7771 0
M  V30 76 O -3.9174 0.723 3.8072 0
M  V30 77 C -3.5629 -0.655 1.8354 0
M  V30 78 C 2.602 5.6899 1.7807 0
M  V30 79 C 0.7683 4.8011 3.1697 0
M  V30 80 O 0.6605 5.1113 -0.7963 0
M  V30 81 C -2.756 -8.3501 -3.6564 0 CFG=1
M  V30 82 N -5.4605 -5.6043 -1.841 0
M  V30 83 C -5.0822 -7.7571 -2.9714 0 CFG=2
M  V30 84 C -0.273 3.7265 3.5271 0 CFG=1
M  V30 85 O 3.4301 5.4911 0.7002 0
M  V30 86 C 2.7124 6.7827 2.6481 0
M  V30 87 C 0.9023 5.929 3.9996 0
M  V30 88 C -4.2386 -8.5165 -4.0003 0 CFG=2
M  V30 89 C -1.8603 -8.9957 -4.7182 0
M  V30 90 C -5.8124 -4.2757 -1.9306 0
M  V30 91 O -6.4677 -7.8624 -3.333 0
M  V30 92 C -0.6214 3.6213 5.0364 0
M  V30 93 C 4.2967 6.5577 0.2852 0 CFG=1
M  V30 94 C 1.8589 6.8967 3.7352 0
M  V30 95 O -4.6505 -9.8876 -3.9716 0
M  V30 96 O -0.4912 -8.7601 -4.3965 0
M  V30 97 O -5.4507 -3.5337 -2.836 0
M  V30 98 C -6.7043 -3.8334 -0.7836 0
M  V30 99 O -1.3878 4.4042 5.5972 0
M  V30 100 N -0.0171 2.5632 5.6939 0
M  V30 101 O 5.3308 6.8531 1.2446 0
M  V30 102 C 4.8958 6.2147 -1.0954 0 CFG=1
M  V30 103 O 1.9352 7.956 4.5906 0
M  V30 104 C -7.0635 -2.3506 -0.8571 0
M  V30 105 C -0.2363 2.3105 7.1065 0
M  V30 106 C 6.2697 5.7807 1.4152 0 CFG=1
M  V30 107 O 5.4686 7.3893 -1.7017 0
M  V30 108 C 5.9887 5.1521 -0.9702 0 CFG=2
M  V30 109 C -7.7696 -1.8859 0.4178 0
M  V30 110 C 0.643 3.2067 7.9748 0
M  V30 111 C 7.016 5.5338 0.0986 0 CFG=2
M  V30 112 C 7.2162 6.177 2.5531 0
M  V30 113 O 6.6528 5.0156 -2.2391 0
M  V30 114 C -7.9751 -0.3697 0.4802 0
M  V30 115 C 0.5578 2.8589 9.4664 0
M  V30 116 O 7.983 4.4814 0.2175 0
M  V30 117 O 7.9987 7.3124 2.1882 0
M  V30 118 C -8.9083 0.1644 -0.6078 0
M  V30 119 N -0.8023 2.8732 10.028 0
M  V30 120 C -9.1591 1.6642 -0.433 0
M  V30 121 C -1.3961 4.2128 9.9988 0
M  V30 122 C -0.7848 2.3691 11.4036 0
M  V30 123 C -10.0874 2.2045 -1.5236 0
M  V30 124 C -10.3316 3.7066 -1.3489 0
M  V30 125 C -11.3567 4.2815 -2.3441 0
M  V30 126 C -11.6482 5.7447 -2.0011 0
M  V30 127 C -10.8853 4.1764 -3.7952 0
M  V30 128 H 9.3135 0.8688 2.0403 0
M  V30 129 H 7.9321 1.7869 0.5487 0
M  V30 130 H 4.6525 -0.654 -0.7028 0
M  V30 131 H 6.0885 -3.8587 0.6227 0
M  V30 132 H 5.7547 -2.4201 -1.7829 0
M  V30 133 H 3.1733 -3.6246 -0.6934 0
M  V30 134 H 7.0139 -4.3867 -3.3108 0
M  V30 135 H 1.8721 -4.3655 1.5902 0
M  V30 136 H 6.9117 -0.0147 -2.8192 0
M  V30 137 H 4.6881 -2.5734 -3.7979 0
M  V30 138 H 5.7408 -6.3538 -3.9534 0
M  V30 139 H 5.7857 -5.2355 -5.3055 0
M  V30 140 H 2.8046 3.2818 -2.2024 0
M  V30 141 H 2.6946 2.2269 -4.1956 0
M  V30 142 H 2.1741 -0.9607 0.5713 0
M  V30 143 H -0.8401 -4.2719 1.4993 0
M  V30 144 H 1.6815 -3.8188 -1.9476 0
M  V30 145 H 3.7335 0.5714 -5.6791 0
M  V30 146 H 5.1651 -1.3064 -5.9004 0
M  V30 147 H 3.7068 -3.7507 -5.7844 0
M  V30 148 H 3.6702 -7.0899 -3.0395 0
M  V30 149 H -0.466 -0.4217 0.9695 0
M  V30 150 H 7.3612 -1.1155 -6.7726 0
M  V30 151 H 1.2692 -3.4672 -5.4553 0
M  V30 152 H 1.2423 -6.8541 -2.793 0
M  V30 153 H 8.7444 0.7003 -6.4624 0
M  V30 154 H 7.6761 1.3755 -5.2459 0
M  V30 155 H 8.5795 -0.129 -4.9143 0
M  V30 156 H -1.4306 0.9581 4.1639 0
M  V30 157 H 1.9921 2.0539 2.3467 0
M  V30 158 H -0.1708 0.7345 -1.1459 0
M  V30 159 H -1.8324 1.2898 1.2313 0
M  V30 160 H -0.0941 3.0358 -2.0392 0
M  V30 161 H -3.3758 -2.1907 -1.2122 0
M  V30 162 H -2.9212 -6.6979 -1.6111 0
M  V30 163 H -4.3648 1.311 1.9059 0
M  V30 164 H -3.5545 -1.7101 3.7299 0
M  V30 165 H -3.6021 0.0482 -0.2201 0
M  V30 166 H -4.8603 -5.7821 -3.8221 0
M  V30 167 H -1.8552 4.8501 2.7323 0
M  V30 168 H -4.8656 0.5057 3.8517 0
M  V30 169 H 0.8817 5.764 -0.1106 0
M  V30 170 H -2.5187 -8.8071 -2.6867 0
M  V30 171 H -5.8328 -6.1531 -1.0763 0
M  V30 172 H -4.9943 -8.2431 -1.9904 0
M  V30 173 H 0.1566 2.7747 3.2781 0
M  V30 174 H 3.4571 7.555 2.4982 0
M  V30 175 H 0.2654 6.0754 4.8707 0
M  V30 176 H -4.4617 -8.1226 -5.0001 0
M  V30 177 H -2.0161 -10.0768 -4.7734 0
M  V30 178 H -2.0423 -8.562 -5.7073 0
M  V30 179 H -6.6204 -8.8119 -3.509 0
M  V30 180 H 3.7038 7.4739 0.1652 0
M  V30 181 H -4.359 -10.309 -4.8006 0
M  V30 182 H -0.4155 -7.7894 -4.3018 0
M  V30 183 H -6.1811 -4.0518 0.1543 0
M  V30 184 H -7.6183 -4.4389 -0.8022 0
M  V30 185 H 0.5596 1.8934 5.1847 0
M  V30 186 H 4.1138 5.8616 -1.7774 0
M  V30 187 H 2.6508 8.5498 4.3093 0
M  V30 188 H -7.7049 -2.1828 -1.7302 0
M  V30 189 H -6.1613 -1.7502 -1.0142 0
M  V30 190 H -7.0E-4 1.2552 7.2804 0
M  V30 191 H -1.2981 2.465 7.3256 0
M  V30 192 H 5.7389 4.8753 1.7365 0
M  V30 193 H 6.0079 7.0413 -2.4433 0
M  V30 194 H 5.5471 4.1856 -0.7203 0
M  V30 195 H -7.171 -2.18 1.2892 0
M  V30 196 H -8.7362 -2.3955 0.5116 0
M  V30 197 H 0.3903 4.2609 7.8105 0
M  V30 198 H 1.6886 3.1012 7.6569 0
M  V30 199 H 7.5514 6.4316 -0.2355 0
M  V30 200 H 6.6497 6.4429 3.4518 0
M  V30 201 H 7.8995 5.3604 2.8042 0
M  V30 202 H 7.332 4.3284 -2.0884 0
M  V30 203 H -7.003 0.1345 0.4142 0
M  V30 204 H -8.3916 -0.1216 1.4646 0
M  V30 205 H 0.9793 1.8521 9.5873 0
M  V30 206 H 1.2125 3.5399 10.0264 0
M  V30 207 H 8.7758 4.8956 0.6113 0
M  V30 208 H 7.3602 8.0072 1.9342 0
M  V30 209 H -9.8627 -0.3743 -0.5714 0
M  V30 210 H -8.4715 -0.0119 -1.597 0
M  V30 211 H -8.2038 2.2024 -0.4642 0
M  V30 212 H -9.6032 1.8498 0.5526 0
M  V30 213 H -1.5346 4.5644 8.9717 0
M  V30 214 H -0.7868 4.9458 10.5399 0
M  V30 215 H -2.3954 4.1993 10.4492 0
M  V30 216 H -0.1715 2.9924 12.0647 0
M  V30 217 H -0.3956 1.3453 11.4344 0
M  V30 218 H -1.8008 2.3277 11.8122 0
M  V30 219 H -11.0442 1.6697 -1.4887 0
M  V30 220 H -9.6383 2.0077 -2.5032 0
M  V30 221 H -10.6919 3.8873 -0.3278 0
M  V30 222 H -9.3793 4.2437 -1.445 0
M  V30 223 H -12.2949 3.7207 -2.2463 0
M  V30 224 H -12.0286 5.8368 -0.9781 0
M  V30 225 H -10.7458 6.3601 -2.0843 0
M  V30 226 H -12.405 6.1597 -2.6753 0
M  V30 227 H -10.7927 3.1327 -4.1098 0
M  V30 228 H -9.9139 4.6631 -3.9333 0
M  V30 229 H -11.6019 4.6551 -4.4716 0
M  V30 END ATOM
M  V30 BEGIN BOND
M  V30 1 1 1 2
M  V30 2 2 2 3
M  V30 3 1 2 4
M  V30 4 1 3 5
M  V30 5 1 3 6
M  V30 6 2 4 7
M  V30 7 1 4 8
M  V30 8 2 6 9
M  V30 9 1 8 10
M  V30 10 1 8 11
M  V30 11 1 9 12
M  V30 12 1 10 13
M  V30 13 2 11 14
M  V30 14 1 11 15
M  V30 15 1 12 16
M  V30 16 2 13 17
M  V30 17 1 13 18
M  V30 18 1 15 19
M  V30 19 2 16 20
M  V30 20 1 16 21
M  V30 21 1 18 22
M  V30 22 1 18 23
M  V30 23 1 19 24
M  V30 24 1 19 25
M  V30 25 1 20 26
M  V30 26 1 20 27
M  V30 27 2 21 28
M  V30 28 1 22 29
M  V30 29 1 23 30
M  V30 30 2 24 31
M  V30 31 1 24 32
M  V30 32 2 25 33
M  V30 33 1 25 34
M  V30 34 2 27 35
M  V30 35 1 28 36
M  V30 36 2 29 37
M  V30 37 2 30 38
M  V30 38 1 30 39
M  V30 39 1 32 40
M  V30 40 1 33 41
M  V30 41 2 34 42
M  V30 42 1 36 43
M  V30 43 1 38 44
M  V30 44 2 39 45
M  V30 45 1 40 46
M  V30 46 1 40 47
M  V30 47 1 41 48
M  V30 48 2 41 49
M  V30 49 1 42 50
M  V30 50 1 43 51
M  V30 51 2 44 52
M  V30 52 2 46 53
M  V30 53 1 46 54
M  V30 54 2 47 55
M  V30 55 1 47 56
M  V30 56 1 48 57
M  V30 57 1 49 58
M  V30 58 1 54 59
M  V30 59 1 55 60
M  V30 60 2 56 61
M  V30 61 2 57 62
M  V30 62 1 57 63
M  V30 63 1 58 64
M  V30 64 1 59 65
M  V30 65 1 59 66
M  V30 66 1 60 67
M  V30 67 2 60 68
M  V30 68 1 62 69
M  V30 69 1 62 70
M  V30 70 2 63 71
M  V30 71 1 64 72
M  V30 72 1 64 73
M  V30 73 2 65 74
M  V30 74 1 65 75
M  V30 75 1 66 76
M  V30 76 1 66 77
M  V30 77 2 67 78
M  V30 78 1 67 79
M  V30 79 1 68 80
M  V30 80 1 72 81
M  V30 81 1 73 82
M  V30 82 1 73 83
M  V30 83 1 75 84
M  V30 84 1 78 85
M  V30 85 1 78 86
M  V30 86 2 79 87
M  V30 87 1 81 88
M  V30 88 1 81 89
M  V30 89 1 82 90
M  V30 90 1 83 91
M  V30 91 1 84 92
M  V30 92 1 85 93
M  V30 93 2 86 94
M  V30 94 1 88 95
M  V30 95 1 89 96
M  V30 96 2 90 97
M  V30 97 1 90 98
M  V30 98 2 92 99
M  V30 99 1 92 100
M  V30 100 1 93 101
M  V30 101 1 93 102
M  V30 102 1 94 103
M  V30 103 1 98 104
M  V30 104 1 100 105
M  V30 105 1 101 106
M  V30 106 1 102 107
M  V30 107 1 102 108
M  V30 108 1 104 109
M  V30 109 1 105 110
M  V30 110 1 106 111
M  V30 111 1 106 112
M  V30 112 1 108 113
M  V30 113 1 109 114
M  V30 114 1 110 115
M  V30 115 1 111 116
M  V30 116 1 112 117
M  V30 117 1 114 118
M  V30 118 1 115 119
M  V30 119 1 118 120
M  V30 120 1 119 121
M  V30 121 1 119 122
M  V30 122 1 120 123
M  V30 123 1 123 124
M  V30 124 1 124 125
M  V30 125 1 125 126
M  V30 126 1 125 127
M  V30 127 1 7 9
M  V30 128 1 28 35
M  V30 129 1 29 36
M  V30 130 1 42 49
M  V30 131 1 45 52
M  V30 132 1 50 52
M  V30 133 1 61 68
M  V30 134 2 70 77
M  V30 135 1 71 77
M  V30 136 1 79 84
M  V30 137 1 83 88
M  V30 138 1 87 94
M  V30 139 1 108 111
M  V30 140 1 5 128
M  V30 141 1 6 129
M  V30 142 1 7 130
M  V30 143 1 8 131
M  V30 144 1 10 132
M  V30 145 1 15 133
M  V30 146 1 18 134
M  V30 147 1 19 135
M  V30 148 1 21 136
M  V30 149 1 22 137
M  V30 150 1 23 138
M  V30 151 1 23 139
M  V30 152 1 26 140
M  V30 153 1 27 141
M  V30 154 1 32 142
M  V30 155 1 33 143
M  V30 156 1 34 144
M  V30 157 1 35 145
M  V30 158 1 36 146
M  V30 159 1 38 147
M  V30 160 1 39 148
M  V30 161 1 40 149
M  V30 162 1 43 150
M  V30 163 1 44 151
M  V30 164 1 45 152
M  V30 165 1 51 153
M  V30 166 1 51 154
M  V30 167 1 51 155
M  V30 168 1 54 156
M  V30 169 1 55 157
M  V30 170 1 56 158
M  V30 171 1 59 159
M  V30 172 1 61 160
M  V30 173 1 63 161
M  V30 174 1 64 162
M  V30 175 1 66 163
M  V30 176 1 70 164
M  V30 177 1 71 165
M  V30 178 1 73 166
M  V30 179 1 75 167
M  V30 180 1 76 168
M  V30 181 1 80 169
M  V30 182 1 81 170
M  V30 183 1 82 171
M  V30 184 1 83 172
M  V30 185 1 84 173
M  V30 186 1 86 174
M  V30 187 1 87 175
M  V30 188 1 88 176
M  V30 189 1 89 177
M  V30 190 1 89 178
M  V30 191 1 91 179
M  V30 192 1 93 180
M  V30 193 1 95 181
M  V30 194 1 96 182
M  V30 195 1 98 183
M  V30 196 1 98 184
M  V30 197 1 100 185
M  V30 198 1 102 186
M  V30 199 1 103 187
M  V30 200 1 104 188
M  V30 201 1 104 189
M  V30 202 1 105 190
M  V30 203 1 105 191
M  V30 204 1 106 192
M  V30 205 1 107 193
M  V30 206 1 108 194
M  V30 207 1 109 195
M  V30 208 1 109 196
M  V30 209 1 110 197
M  V30 210 1 110 198
M  V30 211 1 111 199
M  V30 212 1 112 200
M  V30 213 1 112 201
M  V30 214 1 113 202
M  V30 215 1 114 203
M  V30 216 1 114 204
M  V30 217 1 115 205
M  V30 218 1 115 206
M  V30 219 1 116 207
M  V30 220 1 117 208
M  V30 221 1 118 209
M  V30 222 1 118 210
M  V30 223 1 120 211
M  V30 224 1 120 212
M  V30 225 1 121 213
M  V30 226 1 121 214
M  V30 227 1 121 215
M  V30 228 1 122 216
M  V30 229 1 122 217
M  V30 230 1 122 218
M  V30 231 1 123 219
M  V30 232 1 123 220
M  V30 233 1 124 221
M  V30 234 1 124 222
M  V30 235 1 125 223
M  V30 236 1 126 224
M  V30 237 1 126 225
M  V30 238 1 126 226
M  V30 239 1 127 227
M  V30 240 1 127 228
M  V30 241 1 127 229
M  V30 END BOND
M  V30 BEGIN COLLECTION
M  V30 MDLV30/STEABS ATOMS=(18 8 18 19 36 40 59 64 66 73 81 83 84 88 93 102 106 108 111)
M  V30 END COLLECTION
M  V30 END CTAB
M  END
>  <level_0>
47

>  <index>
47

>  <NO.>
48

>  <Name>
mdl 63,246

>  <SMILES>
CN[C@H]1C(=O)N[C@@H]2Cc3ccc(cc3)Oc3cc4cc(c3O[C@@H]3O[C@H](CO)[C@@H](O)[C@H](O)[C@H]3NC(=O)CCCCCCCCC(C)C)Oc3ccc(cc3Cl)[C@@H](O)[C@@H]3NC(=O)[C@H](NC(=O)[C@@H]4NC(=O)[C@@H](NC2=O)c2cc(cc(O)c2Cl)Oc2cc1ccc2O)c1ccc(O)c(c1)-c1c(O[C@H]2O[C@H](CO)[C@@H](O)[C@H](O)[C@@H]2O)cc(O)cc1[C@@H](C(=O)NCCCN(C)C)NC3=O

>  <logBB>
-1.48

>  <Class>
-1

>  <MW>
1800.63

>  <nHBAcc>
29

>  <nHBDon>
21

>  <SLogP>
4.08

>  <TopoPSA>
555.44

>  <MMFF94 Energy>
591.64

$$$$
CC1(C(=O)O)CCC2(C)CCC3(C)C(=CC(=O)C4C5(C)CCC(O)C(C)(C)C5CCC43C)C2C1
Actelion Java MolfileCreator 2.0

  0  0  0  0  0  0              0 V3000
M  V30 BEGIN CTAB
M  V30 COUNTS 80 84 0 0 0
M  V30 BEGIN ATOM
M  V30 1 O -2.8924 -1.6061 -0.321 0
M  V30 2 C -1.8053 -1.0383 -0.3512 0
M  V30 3 C -0.8662 -1.3983 -1.4347 0
M  V30 4 C -1.2876 -0.071 0.7148 0
M  V30 5 C 0.2817 -0.7284 -1.6493 0
M  V30 6 C -0.6035 1.1415 -0.0115 0
M  V30 7 C -2.3105 0.2532 1.8893 0
M  V30 8 C 0.6468 0.5943 -0.9263 0
M  V30 9 C 1.3568 -1.4686 -2.4611 0
M  V30 10 C -0.1127 2.1692 1.0489 0
M  V30 11 C -1.6346 1.8765 -0.9261 0
M  V30 12 C -1.5849 1.2441 2.8754 0
M  V30 13 C -2.605 -1.0623 2.6785 0
M  V30 14 C -3.6566 0.8066 1.3534 0
M  V30 15 C 1.9287 0.2885 -0.0892 0
M  V30 16 C 1.0259 1.7184 -1.9329 0
M  V30 17 C 2.6092 -1.7276 -1.572 0
M  V30 18 C 1.6486 -0.8392 -3.8358 0
M  V30 19 C -1.1328 2.5177 2.1348 0
M  V30 20 C -2.2975 1.5 4.2559 0
M  V30 21 C -3.3329 -0.8554 4.0117 0
M  V30 22 C 3.0552 -0.4231 -0.8689 0
M  V30 23 C 3.7749 -2.3169 -2.4055 0
M  V30 24 C 2.2783 -2.7829 -0.4802 0
M  V30 25 C 2.7755 -1.535 -4.6308 0
M  V30 26 C -2.6294 0.1373 4.9344 0
M  V30 27 C -3.5836 2.3433 4.141 0
M  V30 28 C -1.3478 2.2889 5.1987 0
M  V30 29 C 4.0282 -1.6171 -3.7381 0
M  V30 30 C 3.0898 -0.6913 -5.8663 0
M  V30 31 C 2.3296 -2.9186 -5.1306 0
M  V30 32 O -1.4486 -0.4837 5.4533 0
M  V30 33 O 2.4251 0.2302 -6.3113 0
M  V30 34 O 4.2121 -1.0737 -6.5069 0
M  V30 35 H -1.1083 -2.3305 -1.9353 0
M  V30 36 H -0.4792 -0.6313 1.2092 0
M  V30 37 H 0.9575 -2.4656 -2.7 0
M  V30 38 H 0.7633 1.7807 1.5774 0
M  V30 39 H 0.2114 3.0983 0.5662 0
M  V30 40 H -1.9838 1.2466 -1.7497 0
M  V30 41 H -2.5126 2.2225 -0.3848 0
M  V30 42 H -1.2128 2.7855 -1.3676 0
M  V30 43 H -0.646 0.7365 3.1504 0
M  V30 44 H -1.664 -1.5913 2.8757 0
M  V30 45 H -3.2105 -1.7478 2.0758 0
M  V30 46 H -3.6996 1.8972 1.3501 0
M  V30 47 H -4.5135 0.4691 1.9421 0
M  V30 48 H -3.8721 0.482 0.3328 0
M  V30 49 H 1.6769 -0.3121 0.7915 0
M  V30 50 H 2.3577 1.2233 0.2932 0
M  V30 51 H 0.3337 1.7548 -2.7813 0
M  V30 52 H 1.0308 2.7033 -1.4548 0
M  V30 53 H 2.0345 1.6183 -2.3365 0
M  V30 54 H 1.9309 0.2072 -3.7322 0
M  V30 55 H 0.7235 -0.8323 -4.4291 0
M  V30 56 H -0.6372 3.2091 2.8235 0
M  V30 57 H -1.9734 3.0719 1.7101 0
M  V30 58 H -3.3997 -1.8297 4.5124 0
M  V30 59 H -4.3633 -0.5319 3.8349 0
M  V30 60 H 3.4863 0.2691 -1.5992 0
M  V30 61 H 3.8695 -0.6421 -0.1653 0
M  V30 62 H 3.5812 -3.3778 -2.6102 0
M  V30 63 H 4.7005 -2.2978 -1.8153 0
M  V30 64 H 1.4672 -2.4701 0.1832 0
M  V30 65 H 1.9734 -3.7336 -0.933 0
M  V30 66 H 3.1548 -2.9836 0.1468 0
M  V30 67 H -3.2718 0.3122 5.8062 0
M  V30 68 H -4.4035 1.8109 3.6586 0
M  V30 69 H -3.9503 2.6239 5.1362 0
M  V30 70 H -3.4097 3.2738 3.5915 0
M  V30 71 H -1.7314 2.2929 6.2261 0
M  V30 72 H -0.3433 1.8525 5.2217 0
M  V30 73 H -1.2494 3.3365 4.8958 0
M  V30 74 H 4.8328 -2.1519 -4.2592 0
M  V30 75 H 4.4174 -0.6076 -3.5522 0
M  V30 76 H 3.1311 -3.4143 -5.6904 0
M  V30 77 H 2.0394 -3.5885 -4.3166 0
M  V30 78 H 1.4719 -2.831 -5.808 0
M  V30 79 H -0.8733 -0.7313 4.7124 0
M  V30 80 H 4.2649 -0.4654 -7.274 0
M  V30 END ATOM
M  V30 BEGIN BOND
M  V30 1 2 1 2
M  V30 2 1 2 3
M  V30 3 1 2 4
M  V30 4 2 3 5
M  V30 5 1 4 6
M  V30 6 1 4 7
M  V30 7 1 5 8
M  V30 8 1 5 9
M  V30 9 1 6 10
M  V30 10 1 6 11
M  V30 11 1 7 12
M  V30 12 1 7 13
M  V30 13 1 7 14
M  V30 14 1 8 15
M  V30 15 1 8 16
M  V30 16 1 9 17
M  V30 17 1 9 18
M  V30 18 1 10 19
M  V30 19 1 12 20
M  V30 20 1 13 21
M  V30 21 1 15 22
M  V30 22 1 17 23
M  V30 23 1 17 24
M  V30 24 1 18 25
M  V30 25 1 20 26
M  V30 26 1 20 27
M  V30 27 1 20 28
M  V30 28 1 23 29
M  V30 29 1 25 30
M  V30 30 1 25 31
M  V30 31 1 26 32
M  V30 32 2 30 33
M  V30 33 1 30 34
M  V30 34 1 6 8
M  V30 35 1 12 19
M  V30 36 1 17 22
M  V30 37 1 21 26
M  V30 38 1 25 29
M  V30 39 1 3 35
M  V30 40 1 4 36
M  V30 41 1 9 37
M  V30 42 1 10 38
M  V30 43 1 10 39
M  V30 44 1 11 40
M  V30 45 1 11 41
M  V30 46 1 11 42
M  V30 47 1 12 43
M  V30 48 1 13 44
M  V30 49 1 13 45
M  V30 50 1 14 46
M  V30 51 1 14 47
M  V30 52 1 14 48
M  V30 53 1 15 49
M  V30 54 1 15 50
M  V30 55 1 16 51
M  V30 56 1 16 52
M  V30 57 1 16 53
M  V30 58 1 18 54
M  V30 59 1 18 55
M  V30 60 1 19 56
M  V30 61 1 19 57
M  V30 62 1 21 58
M  V30 63 1 21 59
M  V30 64 1 22 60
M  V30 65 1 22 61
M  V30 66 1 23 62
M  V30 67 1 23 63
M  V30 68 1 24 64
M  V30 69 1 24 65
M  V30 70 1 24 66
M  V30 71 1 26 67
M  V30 72 1 27 68
M  V30 73 1 27 69
M  V30 74 1 27 70
M  V30 75 1 28 71
M  V30 76 1 28 72
M  V30 77 1 28 73
M  V30 78 1 29 74
M  V30 79 1 29 75
M  V30 80 1 31 76
M  V30 81 1 31 77
M  V30 82 1 31 78
M  V30 83 1 32 79
M  V30 84 1 34 80
M  V30 END BOND
M  V30 END CTAB
M  END
>  <level_0>
53

>  <index>
53

>  <NO.>
54

>  <Name>
biosone

>  <SMILES>
CC1(C(=O)O)CCC2(C)CCC3(C)C(=CC(=O)C4C5(C)CCC(O)C(C)(C)C5CCC43C)C2C1

>  <logBB>
-1.4

>  <Class>
-1

>  <MW>
470.34

>  <nHBAcc>
3

>  <nHBDon>
2

>  <SLogP>
6.41

>  <TopoPSA>
74.6

>  <MMFF94 Energy>
130.22

$$$$
CCOc1ccc(C(=O)c2cccc3ccccc23)c2ccccc12
Actelion Java MolfileCreator 2.0

  0  0  0  0  0  0              0 V3000
M  V30 BEGIN CTAB
M  V30 COUNTS 43 46 0 0 0
M  V30 BEGIN ATOM
M  V30 1 O 0.6417 -0.2406 -2.8904 0
M  V30 2 C 0.1075 -0.3642 -1.7926 0
M  V30 3 C 0.9306 -0.1486 -0.574 0
M  V30 4 C -1.3095 -0.8171 -1.6752 0
M  V30 5 C 0.5461 0.7082 0.4891 0
M  V30 6 C 2.1295 -0.8706 -0.5271 0
M  V30 7 C -2.3325 -0.292 -2.5146 0
M  V30 8 C -1.6014 -1.7958 -0.7101 0
M  V30 9 C 1.3837 0.7634 1.6365 0
M  V30 10 C -0.6096 1.5298 0.4663 0
M  V30 11 C 2.9492 -0.7987 0.5937 0
M  V30 12 C -3.6525 -0.7808 -2.338 0
M  V30 13 C -2.1353 0.7046 -3.5024 0
M  V30 14 C -2.9019 -2.2612 -0.556 0
M  V30 15 C 2.5831 9.0E-4 1.6784 0
M  V30 16 C 1.0 1.5951 2.7135 0
M  V30 17 C -0.9591 2.3442 1.5441 0
M  V30 18 C -3.9173 -1.7566 -1.3641 0
M  V30 19 C -4.6999 -0.2863 -3.1333 0
M  V30 20 C -3.1875 1.1865 -4.2845 0
M  V30 21 O 3.3303 0.1129 2.8282 0
M  V30 22 C -0.1572 2.3713 2.6726 0
M  V30 23 C -4.47 0.69 -4.1004 0
M  V30 24 C 4.5788 -0.5731 2.888 0
M  V30 25 C 5.2211 -0.2565 4.2268 0
M  V30 26 H 2.4202 -1.5001 -1.3667 0
M  V30 27 H -0.8205 -2.213 -0.0789 0
M  V30 28 H -1.256 1.566 -0.4069 0
M  V30 29 H 3.8632 -1.3828 0.5886 0
M  V30 30 H -1.1454 1.1204 -3.6819 0
M  V30 31 H -3.1263 -3.0194 0.1901 0
M  V30 32 H 1.6207 1.6495 3.6069 0
M  V30 33 H -1.854 2.9593 1.4936 0
M  V30 34 H -4.9288 -2.1352 -1.2271 0
M  V30 35 H -5.7135 -0.661 -3.0041 0
M  V30 36 H -2.9972 1.9467 -5.0379 0
M  V30 37 H -0.4186 3.0031 3.5173 0
M  V30 38 H -5.2912 1.06 -4.7084 0
M  V30 39 H 5.2413 -0.2311 2.0846 0
M  V30 40 H 4.4211 -1.6552 2.8151 0
M  V30 41 H 6.1863 -0.7611 4.3253 0
M  V30 42 H 5.3732 0.8224 4.3358 0
M  V30 43 H 4.5714 -0.5714 5.0502 0
M  V30 END ATOM
M  V30 BEGIN BOND
M  V30 1 2 1 2
M  V30 2 1 2 3
M  V30 3 1 2 4
M  V30 4 1 3 5
M  V30 5 2 3 6
M  V30 6 1 4 7
M  V30 7 2 4 8
M  V30 8 1 5 9
M  V30 9 2 5 10
M  V30 10 1 6 11
M  V30 11 1 7 12
M  V30 12 2 7 13
M  V30 13 1 8 14
M  V30 14 1 9 15
M  V30 15 2 9 16
M  V30 16 1 10 17
M  V30 17 1 12 18
M  V30 18 2 12 19
M  V30 19 1 13 20
M  V30 20 1 15 21
M  V30 21 1 16 22
M  V30 22 1 19 23
M  V30 23 1 21 24
M  V30 24 1 24 25
M  V30 25 2 11 15
M  V30 26 2 14 18
M  V30 27 2 17 22
M  V30 28 2 20 23
M  V30 29 1 6 26
M  V30 30 1 8 27
M  V30 31 1 10 28
M  V30 32 1 11 29
M  V30 33 1 13 30
M  V30 34 1 14 31
M  V30 35 1 16 32
M  V30 36 1 17 33
M  V30 37 1 18 34
M  V30 38 1 19 35
M  V30 39 1 20 36
M  V30 40 1 22 37
M  V30 41 1 23 38
M  V30 42 1 24 39
M  V30 43 1 24 40
M  V30 44 1 25 41
M  V30 45 1 25 42
M  V30 46 1 25 43
M  V30 END BOND
M  V30 END CTAB
M  END
>  <level_0>
61

>  <index>
61

>  <NO.>
62

>  <Name>


>  <SMILES>
CCOc1ccc(C(=O)c2cccc3ccccc23)c2ccccc12

>  <logBB>
-1.39

>  <Class>
-1

>  <MW>
326.13

>  <nHBAcc>
2

>  <nHBDon>
0

>  <SLogP>
5.62

>  <TopoPSA>
26.3

>  <MMFF94 Energy>
115.32

$$$$
CC(C)c1c(C(=O)Nc2ccccc2)c(-c2ccccc2)c(-c2ccc(F)cc2)n1CC[C@@H](O)C[C@@H](O)CC(=O)O
Actelion Java MolfileCreator 2.0

  0  0  0  0  0  0              0 V3000
M  V30 BEGIN CTAB
M  V30 COUNTS 76 79 0 0 0
M  V30 BEGIN ATOM
M  V30 1 F 2.6211 -5.2476 2.3031 0
M  V30 2 C 2.2146 -4.0734 1.8037 0
M  V30 3 C 2.9386 -2.9214 2.089 0
M  V30 4 C 1.0732 -4.0237 1.0137 0
M  V30 5 C 2.5132 -1.6956 1.5736 0
M  V30 6 C 0.6463 -2.7983 0.5 0
M  V30 7 C 1.3656 -1.6259 0.7712 0
M  V30 8 C 0.892 -0.3352 0.2538 0
M  V30 9 N 0.3505 0.6733 1.0449 0
M  V30 10 C 0.812 0.0948 -1.064 0
M  V30 11 C 0.065 1.7872 0.2659 0
M  V30 12 C 0.0654 0.5106 2.469 0
M  V30 13 C 1.1917 -0.7361 -2.1999 0
M  V30 14 C 0.2787 1.424 -1.0685 0
M  V30 15 C -0.3804 3.1494 0.7767 0
M  V30 16 C -1.2353 -0.2632 2.7193 0
M  V30 17 C 2.5146 -1.1681 -2.3561 0
M  V30 18 C 0.2397 -1.0688 -3.1705 0
M  V30 19 C -0.0017 2.2813 -2.2344 0
M  V30 20 C -1.7468 3.1365 1.4554 0
M  V30 21 C 0.6934 3.8439 1.6161 0
M  V30 22 C -1.501 -0.4372 4.2166 0 CFG=1
M  V30 23 C 2.8785 -1.9288 -3.4684 0
M  V30 24 C 0.6071 -1.8266 -4.2836 0
M  V30 25 O -1.0227 2.9583 -2.2911 0
M  V30 26 N 0.9818 2.2252 -3.2026 0
M  V30 27 O -1.6214 0.8673 4.7921 0
M  V30 28 C -2.7818 -1.2235 4.5323 0
M  V30 29 C 1.9251 -2.2561 -4.4317 0
M  V30 30 C 1.0012 2.8816 -4.4466 0
M  V30 31 C -2.5865 -2.7347 4.7233 0 CFG=1
M  V30 32 C 0.1841 3.9673 -4.7648 0
M  V30 33 C 1.9171 2.4174 -5.3991 0
M  V30 34 O -3.793 -3.283 5.2664 0
M  V30 35 C -2.158 -3.5468 3.5029 0
M  V30 36 C 0.2741 4.5744 -6.0213 0
M  V30 37 C 2.0063 3.0236 -6.6545 0
M  V30 38 C -3.0464 -3.3905 2.2992 0
M  V30 39 C 1.1833 4.1028 -6.9656 0
M  V30 40 O -2.6752 -3.3673 1.1379 0
M  V30 41 O -4.3611 -3.3427 2.5911 0
M  V30 42 H 3.8287 -2.985 2.7064 0
M  V30 43 H 0.5199 -4.9326 0.8007 0
M  V30 44 H 3.0853 -0.7963 1.7906 0
M  V30 45 H -0.2523 -2.7618 -0.1136 0
M  V30 46 H 0.9168 0.0031 2.9312 0
M  V30 47 H 0.0278 1.4937 2.9332 0
M  V30 48 H -0.5022 3.8009 -0.0965 0
M  V30 49 H -1.1857 -1.2352 2.2271 0
M  V30 50 H -2.0682 0.2792 2.2555 0
M  V30 51 H 3.2678 -0.917 -1.6131 0
M  V30 52 H -0.7922 -0.7396 -3.0672 0
M  V30 53 H -2.1183 4.1606 1.5756 0
M  V30 54 H -2.4805 2.5848 0.8577 0
M  V30 55 H -1.7195 2.6933 2.4529 0
M  V30 56 H 1.6459 3.8803 1.0755 0
M  V30 57 H 0.8779 3.3498 2.5724 0
M  V30 58 H 0.3965 4.8755 1.8358 0
M  V30 59 H -0.6399 -0.9122 4.6993 0
M  V30 60 H 3.9046 -2.2688 -3.5813 0
M  V30 61 H -0.1368 -2.0815 -5.0341 0
M  V30 62 H 1.7554 1.6011 -3.0181 0
M  V30 63 H -2.471 1.2505 4.5092 0
M  V30 64 H -3.2166 -0.832 5.4635 0
M  V30 65 H -3.5533 -1.0219 3.7788 0
M  V30 66 H 2.208 -2.85 -5.297 0
M  V30 67 H -1.8284 -2.8822 5.5018 0
M  V30 68 H -0.5276 4.3712 -4.0512 0
M  V30 69 H 2.5628 1.5705 -5.1806 0
M  V30 70 H -4.4567 -3.294 4.5472 0
M  V30 71 H -1.1407 -3.265 3.2152 0
M  V30 72 H -2.1505 -4.6152 3.7488 0
M  V30 73 H -0.3687 5.4185 -6.2579 0
M  V30 74 H 2.716 2.6513 -7.3882 0
M  V30 75 H 1.2493 4.5767 -7.9413 0
M  V30 76 H -4.7937 -3.3091 1.7088 0
M  V30 END ATOM
M  V30 BEGIN BOND
M  V30 1 1 1 2
M  V30 2 2 2 3
M  V30 3 1 2 4
M  V30 4 1 3 5
M  V30 5 2 4 6
M  V30 6 2 5 7
M  V30 7 1 7 8
M  V30 8 1 8 9
M  V30 9 2 8 10
M  V30 10 1 9 11
M  V30 11 1 9 12
M  V30 12 1 10 13
M  V30 13 1 10 14
M  V30 14 1 11 15
M  V30 15 1 12 16
M  V30 16 2 13 17
M  V30 17 1 13 18
M  V30 18 1 14 19
M  V30 19 1 15 20
M  V30 20 1 15 21
M  V30 21 1 16 22
M  V30 22 1 17 23
M  V30 23 2 18 24
M  V30 24 2 19 25
M  V30 25 1 19 26
M  V30 26 1 22 27
M  V30 27 1 22 28
M  V30 28 2 23 29
M  V30 29 1 26 30
M  V30 30 1 28 31
M  V30 31 2 30 32
M  V30 32 1 30 33
M  V30 33 1 31 34
M  V30 34 1 31 35
M  V30 35 1 32 36
M  V30 36 2 33 37
M  V30 37 1 35 38
M  V30 38 2 36 39
M  V30 39 2 38 40
M  V30 40 1 38 41
M  V30 41 1 6 7
M  V30 42 2 11 14
M  V30 43 1 24 29
M  V30 44 1 37 39
M  V30 45 1 3 42
M  V30 46 1 4 43
M  V30 47 1 5 44
M  V30 48 1 6 45
M  V30 49 1 12 46
M  V30 50 1 12 47
M  V30 51 1 15 48
M  V30 52 1 16 49
M  V30 53 1 16 50
M  V30 54 1 17 51
M  V30 55 1 18 52
M  V30 56 1 20 53
M  V30 57 1 20 54
M  V30 58 1 20 55
M  V30 59 1 21 56
M  V30 60 1 21 57
M  V30 61 1 21 58
M  V30 62 1 22 59
M  V30 63 1 23 60
M  V30 64 1 24 61
M  V30 65 1 26 62
M  V30 66 1 27 63
M  V30 67 1 28 64
M  V30 68 1 28 65
M  V30 69 1 29 66
M  V30 70 1 31 67
M  V30 71 1 32 68
M  V30 72 1 33 69
M  V30 73 1 34 70
M  V30 74 1 35 71
M  V30 75 1 35 72
M  V30 76 1 36 73
M  V30 77 1 37 74
M  V30 78 1 39 75
M  V30 79 1 41 76
M  V30 END BOND
M  V30 BEGIN COLLECTION
M  V30 MDLV30/STEABS ATOMS=(2 22 31)
M  V30 END COLLECTION
M  V30 END CTAB
M  END
>  <level_0>
64

>  <index>
64

>  <NO.>
65

>  <Name>
atorvastatin

>  <SMILES>
CC(C)c1c(C(=O)Nc2ccccc2)c(-c2ccccc2)c(-c2ccc(F)cc2)n1CC[C@@H](O)C[C@@H](O)CC(=O)O

>  <logBB>
-1.36

>  <Class>
-1

>  <MW>
558.25

>  <nHBAcc>
4

>  <nHBDon>
4

>  <SLogP>
6.31

>  <TopoPSA>
111.79

>  <MMFF94 Energy>
50.047

$$$$
O=c1[nH]cnc2c1ncn2C1CCC(CO)O1
Actelion Java MolfileCreator 2.0

  0  0  0  0  0  0              0 V3000
M  V30 BEGIN CTAB
M  V30 COUNTS 29 31 0 0 0
M  V30 BEGIN ATOM
M  V30 1 O -4.5677 -1.8412 -2.2418 0
M  V30 2 C -3.5264 -1.1936 -2.262 0
M  V30 3 N -3.2076 -0.3543 -3.3207 0
M  V30 4 C -2.5035 -1.1899 -1.2364 0
M  V30 5 C -2.0492 0.3993 -3.3824 0
M  V30 6 N -2.4334 -1.8638 -0.0446 0
M  V30 7 C -1.3963 -0.3922 -1.4304 0
M  V30 8 N -1.1173 0.4238 -2.4765 0
M  V30 9 C -1.2841 -1.4838 0.4793 0
M  V30 10 N -0.6201 -0.5912 -0.3227 0
M  V30 11 C 0.648 0.0555 -0.0602 0
M  V30 12 O 1.3722 -0.6654 0.964 0
M  V30 13 C 0.5077 1.4916 0.4263 0
M  V30 14 C 1.7919 0.2849 1.9676 0
M  V30 15 C 1.7206 1.6481 1.3091 0
M  V30 16 C 3.1853 -0.0856 2.4638 0
M  V30 17 O 3.147 -1.3705 3.0808 0
M  V30 18 H -3.8876 -0.3211 -4.0647 0
M  V30 19 H -1.971 1.0068 -4.2983 0
M  V30 20 H -0.8874 -1.821 1.4288 0
M  V30 21 H 1.2502 -0.0021 -0.9743 0
M  V30 22 H 0.4751 2.2141 -0.3944 0
M  V30 23 H -0.4045 1.6228 1.022 0
M  V30 24 H 1.0678 0.2072 2.788 0
M  V30 25 H 2.6057 1.832 0.6884 0
M  V30 26 H 1.6298 2.4652 2.0301 0
M  V30 27 H 3.5493 0.6373 3.1993 0
M  V30 28 H 3.8994 -0.1418 1.636 0
M  V30 29 H 2.6841 -1.9562 2.4512 0
M  V30 END ATOM
M  V30 BEGIN BOND
M  V30 1 2 1 2
M  V30 2 1 2 3
M  V30 3 1 2 4
M  V30 4 1 3 5
M  V30 5 1 4 6
M  V30 6 2 4 7
M  V30 7 2 5 8
M  V30 8 2 6 9
M  V30 9 1 7 10
M  V30 10 1 10 11
M  V30 11 1 11 12
M  V30 12 1 11 13
M  V30 13 1 12 14
M  V30 14 1 13 15
M  V30 15 1 14 16
M  V30 16 1 16 17
M  V30 17 1 7 8
M  V30 18 1 9 10
M  V30 19 1 14 15
M  V30 20 1 3 18
M  V30 21 1 5 19
M  V30 22 1 9 20
M  V30 23 1 11 21
M  V30 24 1 13 22
M  V30 25 1 13 23
M  V30 26 1 14 24
M  V30 27 1 15 25
M  V30 28 1 15 26
M  V30 29 1 16 27
M  V30 30 1 16 28
M  V30 31 1 17 29
M  V30 END BOND
M  V30 END CTAB
M  END
>  <level_0>
68

>  <index>
68

>  <NO.>
69

>  <Name>
didanosine

>  <SMILES>
O=c1[nH]cnc2c1ncn2C1CCC(CO)O1

>  <logBB>
-1.3

>  <Class>
-1

>  <MW>
236.09

>  <nHBAcc>
5

>  <nHBDon>
2

>  <SLogP>
-0.21

>  <TopoPSA>
93.03

>  <MMFF94 Energy>
26.57

$$$$
C[C@H]1O[C@@H](O[C@H]2[C@@H](O)C[C@H](O[C@H]3[C@@H](O)C[C@H](O[C@H]4CC[C@]5(C)[C@H]6C[C@@H](O)[C@]7(C)C(C8=CC(=O)OC8)CC[C@]7(O)[C@@H]6CC[C@@H]5C4)O[C@@H]3C)O[C@@H]2C)C[C@H](O)[C@@H]1O
Actelion Java MolfileCreator 2.0

  0  0  0  0  0  0              0 V3000
M  V30 BEGIN CTAB
M  V30 COUNTS 119 126 0 0 0
M  V30 BEGIN ATOM
M  V30 1 O 4.1834 -12.428 -3.5389 0
M  V30 2 C 3.8778 -11.263 -3.7153 0
M  V30 3 O 4.714 -10.1961 -3.6162 0
M  V30 4 C 2.5459 -10.7947 -4.0875 0
M  V30 5 C 3.9846 -9.0042 -3.9098 0
M  V30 6 C 2.6046 -9.4659 -4.1857 0
M  V30 7 C 1.4569 -8.5692 -4.5524 0
M  V30 8 C 0.5489 -7.9973 -3.4113 0 CFG=2
M  V30 9 C 1.8339 -7.3339 -5.3911 0
M  V30 10 C -0.295 -6.9578 -4.2143 0 CFG=1
M  V30 11 C 1.3521 -7.2811 -2.2915 0 CFG=2
M  V30 12 C -0.3237 -9.1283 -2.8197 0
M  V30 13 C 0.7393 -6.2868 -5.14 0
M  V30 14 O -1.2114 -7.6754 -5.0592 0
M  V30 15 C -1.1192 -5.9843 -3.3248 0 CFG=1
M  V30 16 O 2.0199 -8.2338 -1.4645 0
M  V30 17 C 0.4698 -6.4035 -1.3988 0
M  V30 18 C -0.2747 -5.3217 -2.1996 0 CFG=2
M  V30 19 C -1.8616 -4.9247 -4.1637 0
M  V30 20 C -1.1207 -4.3383 -1.2994 0 CFG=2
M  V30 21 C -2.6718 -3.9561 -3.309 0
M  V30 22 C -1.8432 -3.2883 -2.203 0 CFG=2
M  V30 23 C -0.2416 -3.5695 -0.2689 0
M  V30 24 C -2.1763 -5.1126 -0.4669 0
M  V30 25 C -0.8684 -2.2525 -2.8136 0
M  V30 26 C 0.7239 -2.5657 -0.8969 0
M  V30 27 C -0.0109 -1.5426 -1.7634 0 CFG=2
M  V30 28 O -0.8839 -0.7525 -0.9509 0
M  V30 29 C -0.3648 0.5461 -0.6572 0 CFG=2
M  V30 30 O 0.826 0.4468 0.1201 0
M  V30 31 C -1.4339 1.2834 0.1406 0
M  V30 32 C 1.3925 1.732 0.3956 0 CFG=1
M  V30 33 C -0.9447 2.6591 0.5656 0 CFG=1
M  V30 34 C 0.4346 2.5856 1.2528 0 CFG=2
M  V30 35 C 2.7207 1.4945 1.1096 0
M  V30 36 O -0.8777 3.5053 -0.587 0
M  V30 37 O 1.0394 3.8729 1.4494 0
M  V30 38 C 0.2993 4.7571 2.2865 0 CFG=2
M  V30 39 O -0.6604 5.4413 1.4813 0
M  V30 40 C 1.282 5.7698 2.8606 0
M  V30 41 C -1.4714 6.3284 2.2617 0 CFG=1
M  V30 42 C 0.5525 6.8213 3.6827 0 CFG=1
M  V30 43 C -0.6171 7.4477 2.8945 0 CFG=2
M  V30 44 C -2.539 6.8966 1.3305 0
M  V30 45 O 0.0677 6.2124 4.8837 0
M  V30 46 O -1.4792 8.2583 3.707 0
M  V30 47 C -0.8475 9.3837 4.3107 0 CFG=2
M  V30 48 O -0.2454 8.959 5.5353 0
M  V30 49 C -1.9373 10.4119 4.6055 0
M  V30 50 C 0.4296 10.034 6.2016 0 CFG=1
M  V30 51 C -1.3637 11.5936 5.3689 0 CFG=1
M  V30 52 C -0.5752 11.1288 6.6014 0 CFG=2
M  V30 53 C 1.1298 9.4477 7.4228 0
M  V30 54 O -0.5004 12.3356 4.4987 0
M  V30 55 O 0.1036 12.2562 7.1634 0
M  V30 56 H 1.7061 -11.4512 -4.2271 0
M  V30 57 H 4.4439 -8.5306 -4.7824 0
M  V30 58 H 4.0522 -8.33 -3.0535 0
M  V30 59 H 0.8102 -9.177 -5.2059 0
M  V30 60 H 2.8025 -6.9083 -5.1084 0
M  V30 61 H 1.8948 -7.5916 -6.4547 0
M  V30 62 H 2.1339 -6.6482 -2.7267 0
M  V30 63 H -1.0835 -8.737 -2.1364 0
M  V30 64 H -0.8501 -9.6872 -3.6012 0
M  V30 65 H 0.2762 -9.8558 -2.2636 0
M  V30 66 H 0.3012 -5.968 -6.0924 0
M  V30 67 H 1.1968 -5.4059 -4.6784 0
M  V30 68 H -1.5895 -7.0618 -5.7111 0
M  V30 69 H -1.9005 -6.5941 -2.8518 0
M  V30 70 H 2.4238 -7.7628 -0.715 0
M  V30 71 H 1.1156 -5.9442 -0.6427 0
M  V30 72 H -0.2283 -7.0354 -0.8389 0
M  V30 73 H 0.4987 -4.7209 -2.6918 0
M  V30 74 H -1.1521 -4.36 -4.7781 0
M  V30 75 H -2.5524 -5.4105 -4.862 0
M  V30 76 H -3.1168 -3.1903 -3.9564 0
M  V30 77 H -3.5165 -4.4943 -2.8626 0
M  V30 78 H -2.5497 -2.7245 -1.5767 0
M  V30 79 H 0.3215 -4.262 0.3651 0
M  V30 80 H -0.8975 -3.0216 0.4225 0
M  V30 81 H -2.8297 -4.4189 0.0758 0
M  V30 82 H -1.7031 -5.7534 0.2845 0
M  V30 83 H -2.8226 -5.7458 -1.0793 0
M  V30 84 H -1.4562 -1.5015 -3.3573 0
M  V30 85 H -0.2046 -2.7248 -3.5454 0
M  V30 86 H 1.2617 -2.0599 -0.0877 0
M  V30 87 H 1.4773 -3.0895 -1.4953 0
M  V30 88 H 0.716 -0.9049 -2.282 0
M  V30 89 H -0.1595 1.0668 -1.6017 0
M  V30 90 H -1.6862 0.6987 1.0348 0
M  V30 91 H -2.3485 1.3614 -0.4593 0
M  V30 92 H 1.6154 2.2401 -0.5519 0
M  V30 93 H -1.6868 3.1018 1.2391 0
M  V30 94 H 0.3106 2.095 2.2279 0
M  V30 95 H 3.2463 2.4324 1.3119 0
M  V30 96 H 2.5662 0.9664 2.0571 0
M  V30 97 H 3.3711 0.8584 0.4992 0
M  V30 98 H -0.6134 4.384 -0.2365 0
M  V30 99 H -0.1983 4.1944 3.0871 0
M  V30 100 H 1.8215 6.2617 2.041 0
M  V30 101 H 2.0297 5.2468 3.4688 0
M  V30 102 H -1.9881 5.7529 3.0413 0
M  V30 103 H 1.2704 7.5917 3.9846 0
M  V30 104 H -0.2001 8.0649 2.0872 0
M  V30 105 H -3.2369 7.5492 1.8634 0
M  V30 106 H -2.082 7.4636 0.512 0
M  V30 107 H -3.1098 6.084 0.8677 0
M  V30 108 H -0.334 6.9495 5.394 0
M  V30 109 H -0.0892 9.8005 3.6353 0
M  V30 110 H -2.7301 9.9442 5.2032 0
M  V30 111 H -2.3941 10.7371 3.6633 0
M  V30 112 H 1.205 10.4409 5.5394 0
M  V30 113 H -2.162 12.2804 5.6709 0
M  V30 114 H -1.2743 10.7287 7.3467 0
M  V30 115 H 1.6983 10.2083 7.9659 0
M  V30 116 H 0.4062 8.9924 8.108 0
M  V30 117 H 1.8173 8.6506 7.1192 0
M  V30 118 H 0.0465 12.9016 5.081 0
M  V30 119 H -0.5586 12.7816 7.6485 0
M  V30 END ATOM
M  V30 BEGIN BOND
M  V30 1 2 1 2
M  V30 2 1 2 3
M  V30 3 1 2 4
M  V30 4 1 3 5
M  V30 5 2 4 6
M  V30 6 1 6 7
M  V30 7 1 7 8
M  V30 8 1 7 9
M  V30 9 1 8 10
M  V30 10 1 8 11
M  V30 11 1 8 12
M  V30 12 1 9 13
M  V30 13 1 10 14
M  V30 14 1 10 15
M  V30 15 1 11 16
M  V30 16 1 11 17
M  V30 17 1 15 18
M  V30 18 1 15 19
M  V30 19 1 18 20
M  V30 20 1 19 21
M  V30 21 1 20 22
M  V30 22 1 20 23
M  V30 23 1 20 24
M  V30 24 1 22 25
M  V30 25 1 23 26
M  V30 26 1 25 27
M  V30 27 1 27 28
M  V30 28 1 28 29
M  V30 29 1 29 30
M  V30 30 1 29 31
M  V30 31 1 30 32
M  V30 32 1 31 33
M  V30 33 1 32 34
M  V30 34 1 32 35
M  V30 35 1 33 36
M  V30 36 1 34 37
M  V30 37 1 37 38
M  V30 38 1 38 39
M  V30 39 1 38 40
M  V30 40 1 39 41
M  V30 41 1 40 42
M  V30 42 1 41 43
M  V30 43 1 41 44
M  V30 44 1 42 45
M  V30 45 1 43 46
M  V30 46 1 46 47
M  V30 47 1 47 48
M  V30 48 1 47 49
M  V30 49 1 48 50
M  V30 50 1 49 51
M  V30 51 1 50 52
M  V30 52 1 50 53
M  V30 53 1 51 54
M  V30 54 1 52 55
M  V30 55 1 5 6
M  V30 56 1 10 13
M  V30 57 1 17 18
M  V30 58 1 21 22
M  V30 59 1 26 27
M  V30 60 1 33 34
M  V30 61 1 42 43
M  V30 62 1 51 52
M  V30 63 1 4 56
M  V30 64 1 5 57
M  V30 65 1 5 58
M  V30 66 1 7 59
M  V30 67 1 9 60
M  V30 68 1 9 61
M  V30 69 1 11 62
M  V30 70 1 12 63
M  V30 71 1 12 64
M  V30 72 1 12 65
M  V30 73 1 13 66
M  V30 74 1 13 67
M  V30 75 1 14 68
M  V30 76 1 15 69
M  V30 77 1 16 70
M  V30 78 1 17 71
M  V30 79 1 17 72
M  V30 80 1 18 73
M  V30 81 1 19 74
M  V30 82 1 19 75
M  V30 83 1 21 76
M  V30 84 1 21 77
M  V30 85 1 22 78
M  V30 86 1 23 79
M  V30 87 1 23 80
M  V30 88 1 24 81
M  V30 89 1 24 82
M  V30 90 1 24 83
M  V30 91 1 25 84
M  V30 92 1 25 85
M  V30 93 1 26 86
M  V30 94 1 26 87
M  V30 95 1 27 88
M  V30 96 1 29 89
M  V30 97 1 31 90
M  V30 98 1 31 91
M  V30 99 1 32 92
M  V30 100 1 33 93
M  V30 101 1 34 94
M  V30 102 1 35 95
M  V30 103 1 35 96
M  V30 104 1 35 97
M  V30 105 1 36 98
M  V30 106 1 38 99
M  V30 107 1 40 100
M  V30 108 1 40 101
M  V30 109 1 41 102
M  V30 110 1 42 103
M  V30 111 1 43 104
M  V30 112 1 44 105
M  V30 113 1 44 106
M  V30 114 1 44 107
M  V30 115 1 45 108
M  V30 116 1 47 109
M  V30 117 1 49 110
M  V30 118 1 49 111
M  V30 119 1 50 112
M  V30 120 1 51 113
M  V30 121 1 52 114
M  V30 122 1 53 115
M  V30 123 1 53 116
M  V30 124 1 53 117
M  V30 125 1 54 118
M  V30 126 1 55 119
M  V30 END BOND
M  V30 BEGIN COLLECTION
M  V30 MDLV30/STEABS ATOMS=(20 8 10 11 15 18 20 22 27 29 32 33 34 38 41 42 43 47 50 51 52)
M  V30 END COLLECTION
M  V30 END CTAB
M  END
>  <level_0>
96

>  <index>
96

>  <NO.>
97

>  <Name>
digoxin

>  <SMILES>
C[C@H]1O[C@@H](O[C@H]2[C@@H](O)C[C@H](O[C@H]3[C@@H](O)C[C@H](O[C@H]4CC[C@]5(C)[C@H]6C[C@@H](O)[C@]7(C)C(C8=CC(=O)OC8)CC[C@]7(O)[C@@H]6CC[C@@H]5C4)O[C@@H]3C)O[C@@H]2C)C[C@H](O)[C@@H]1O

>  <logBB>
-1.23

>  <Class>
-1

>  <MW>
780.43

>  <nHBAcc>
14

>  <nHBDon>
6

>  <SLogP>
2.22

>  <TopoPSA>
203.06

>  <MMFF94 Energy>
150.76

$$$$
Nc1nc(=O)n([C@@H]2CS[C@H](CO)O2)cc1F
Actelion Java MolfileCreator 2.0

  0  0  0  0  0  0              0 V3000
M  V30 BEGIN CTAB
M  V30 COUNTS 26 27 0 0 0
M  V30 BEGIN ATOM
M  V30 1 S -1.4721 2.045 2.2088 0
M  V30 2 C 0.3358 1.9571 2.0807 0 CFG=1
M  V30 3 C -1.6948 0.6659 1.0691 0
M  V30 4 O 0.6756 1.0104 1.05 0
M  V30 5 C 0.9771 3.3066 1.7295 0
M  V30 6 C -0.3269 -0.0241 1.072 0 CFG=2
M  V30 7 O 0.6272 3.7376 0.4109 0
M  V30 8 N -0.157 -0.9229 -0.0639 0
M  V30 9 C -0.7539 -2.1882 0.0388 0
M  V30 10 C 0.505 -0.5346 -1.2107 0
M  V30 11 O -1.3869 -2.4968 1.0465 0
M  V30 12 N -0.6285 -3.0692 -1.0116 0
M  V30 13 C 0.6192 -1.3726 -2.2344 0
M  V30 14 C 0.0095 -2.7128 -2.0867 0
M  V30 15 F 1.2489 -1.0779 -3.3843 0
M  V30 16 N 0.0989 -3.6285 -3.0934 0
M  V30 17 H 0.7362 1.5939 3.0335 0
M  V30 18 H -1.9344 1.0733 0.0814 0
M  V30 19 H -2.5052 0.0022 1.3817 0
M  V30 20 H 2.0678 3.208 1.7439 0
M  V30 21 H 0.6969 4.0892 2.4416 0
M  V30 22 H -0.1887 -0.6031 1.9963 0
M  V30 23 H 0.712 2.9515 -0.1579 0
M  V30 24 H 0.93 0.4608 -1.256 0
M  V30 25 H -0.3292 -4.5356 -2.9587 0
M  V30 26 H 0.5778 -3.4328 -3.9621 0
M  V30 END ATOM
M  V30 BEGIN BOND
M  V30 1 1 1 2
M  V30 2 1 1 3
M  V30 3 1 2 4
M  V30 4 1 2 5
M  V30 5 1 3 6
M  V30 6 1 5 7
M  V30 7 1 6 8
M  V30 8 1 8 9
M  V30 9 1 8 10
M  V30 10 2 9 11
M  V30 11 1 9 12
M  V30 12 2 10 13
M  V30 13 2 12 14
M  V30 14 1 13 15
M  V30 15 1 14 16
M  V30 16 1 4 6
M  V30 17 1 13 14
M  V30 18 1 2 17
M  V30 19 1 3 18
M  V30 20 1 3 19
M  V30 21 1 5 20
M  V30 22 1 5 21
M  V30 23 1 6 22
M  V30 24 1 7 23
M  V30 25 1 10 24
M  V30 26 1 16 25
M  V30 27 1 16 26
M  V30 END BOND
M  V30 BEGIN COLLECTION
M  V30 MDLV30/STEABS ATOMS=(2 2 6)
M  V30 END COLLECTION
M  V30 END CTAB
M  END
>  <level_0>
98

>  <index>
98

>  <NO.>
99

>  <Name>
ftc; emtricitabine

>  <SMILES>
Nc1nc(=O)n([C@@H]2CS[C@H](CO)O2)cc1F

>  <logBB>
-1.22

>  <Class>
-1

>  <MW>
247.04

>  <nHBAcc>
6

>  <nHBDon>
2

>  <SLogP>
-0.46

>  <TopoPSA>
90.37

>  <MMFF94 Energy>
-19.239

$$$$
CCOc1ccc(Cc2nc3cc(N(C)S(=O)(=O)c4cccs4)ccc3n2CC2CCCCC2)nc1
Actelion Java MolfileCreator 2.0

  0  0  0  0  0  0              0 V3000
M  V30 BEGIN CTAB
M  V30 COUNTS 68 72 0 0 0
M  V30 BEGIN ATOM
M  V30 1 S 1.2995 5.9396 -1.3808 0
M  V30 2 O 0.7368 6.2635 -0.0853 0
M  V30 3 O 2.7308 5.8126 -1.5675 0
M  V30 4 N 0.5413 4.5199 -1.9748 0
M  V30 5 C 0.7445 7.2822 -2.4235 0
M  V30 6 C 0.4557 3.4403 -1.0219 0
M  V30 7 C 0.979 4.0994 -3.3248 0
M  V30 8 S 1.8229 7.859 -3.6198 0
M  V30 9 C -0.4562 7.9686 -2.4535 0
M  V30 10 C -0.7992 2.8535 -0.8288 0
M  V30 11 C 1.5915 2.9039 -0.4067 0
M  V30 12 C 0.6941 9.0201 -4.1724 0
M  V30 13 C -0.4851 8.9729 -3.4631 0
M  V30 14 C -0.9056 1.7531 0.0333 0
M  V30 15 C 1.4997 1.8053 0.4569 0
M  V30 16 N -2.0206 1.0485 0.3997 0
M  V30 17 C 0.2312 1.2452 0.6528 0
M  V30 18 C -1.6082 0.1353 1.2601 0
M  V30 19 N -0.2317 0.177 1.3938 0
M  V30 20 C -2.5217 -0.7893 2.006 0
M  V30 21 C 0.5868 -0.6978 2.2223 0
M  V30 22 C -2.591 -2.1778 1.4197 0
M  V30 23 C 1.0378 -1.9936 1.5114 0
M  V30 24 N -2.1656 -3.201 2.201 0
M  V30 25 C -3.0778 -2.3821 0.1293 0
M  V30 26 C 2.2076 -1.7901 0.5326 0
M  V30 27 C 1.406 -3.0798 2.5388 0
M  V30 28 C -2.2319 -4.4482 1.6719 0
M  V30 29 C -3.1272 -3.6788 -0.3858 0
M  V30 30 C 3.5423 -1.5266 1.2288 0
M  V30 31 C 2.7266 -2.7983 3.2517 0
M  V30 32 C -2.6964 -4.744 0.3958 0
M  V30 33 C 3.8663 -2.605 2.2572 0
M  V30 34 O -2.6794 -6.0609 0.0411 0
M  V30 35 C -3.1597 -6.3847 -1.2628 0
M  V30 36 C -3.0544 -7.8887 -1.4403 0
M  V30 37 H 2.0444 3.8507 -3.3408 0
M  V30 38 H 0.7753 4.886 -4.0557 0
M  V30 39 H 0.4154 3.2173 -3.6485 0
M  V30 40 H -1.2688 7.7534 -1.7687 0
M  V30 41 H -1.6851 3.2441 -1.3151 0
M  V30 42 H 2.5733 3.3367 -0.5876 0
M  V30 43 H 0.9512 9.6829 -4.9877 0
M  V30 44 H -1.3253 9.6294 -3.6561 0
M  V30 45 H 2.386 1.4123 0.9412 0
M  V30 46 H -3.5356 -0.3683 2.0039 0
M  V30 47 H -2.2287 -0.841 3.0609 0
M  V30 48 H 1.4381 -0.1126 2.5845 0
M  V30 49 H -0.0086 -0.9348 3.1105 0
M  V30 50 H 0.1962 -2.3728 0.921 0
M  V30 51 H -3.4086 -1.5401 -0.4738 0
M  V30 52 H 1.9895 -0.9847 -0.1747 0
M  V30 53 H 2.3115 -2.6999 -0.0738 0
M  V30 54 H 0.6064 -3.1924 3.2802 0
M  V30 55 H 1.4831 -4.0446 2.0206 0
M  V30 56 H -1.8844 -5.2418 2.3279 0
M  V30 57 H -3.5044 -3.8162 -1.3929 0
M  V30 58 H 4.3416 -1.4847 0.48 0
M  V30 59 H 3.5254 -0.549 1.7223 0
M  V30 60 H 2.9648 -3.6315 3.9226 0
M  V30 61 H 2.6293 -1.9048 3.8798 0
M  V30 62 H 4.062 -3.5526 1.7402 0
M  V30 63 H 4.7844 -2.3401 2.7936 0
M  V30 64 H -2.5484 -5.8905 -2.0267 0
M  V30 65 H -4.2087 -6.0844 -1.3674 0
M  V30 66 H -3.4117 -8.1906 -2.4287 0
M  V30 67 H -2.017 -8.219 -1.323 0
M  V30 68 H -3.6428 -8.4091 -0.6772 0
M  V30 END ATOM
M  V30 BEGIN BOND
M  V30 1 2 1 2
M  V30 2 2 1 3
M  V30 3 1 1 4
M  V30 4 1 1 5
M  V30 5 1 4 6
M  V30 6 1 4 7
M  V30 7 1 5 8
M  V30 8 2 5 9
M  V30 9 2 6 10
M  V30 10 1 6 11
M  V30 11 1 8 12
M  V30 12 1 9 13
M  V30 13 1 10 14
M  V30 14 2 11 15
M  V30 15 1 14 16
M  V30 16 2 14 17
M  V30 17 2 16 18
M  V30 18 1 17 19
M  V30 19 1 18 20
M  V30 20 1 19 21
M  V30 21 1 20 22
M  V30 22 1 21 23
M  V30 23 2 22 24
M  V30 24 1 22 25
M  V30 25 1 23 26
M  V30 26 1 23 27
M  V30 27 1 24 28
M  V30 28 2 25 29
M  V30 29 1 26 30
M  V30 30 1 27 31
M  V30 31 2 28 32
M  V30 32 1 30 33
M  V30 33 1 32 34
M  V30 34 1 34 35
M  V30 35 1 35 36
M  V30 36 2 12 13
M  V30 37 1 15 17
M  V30 38 1 18 19
M  V30 39 1 29 32
M  V30 40 1 31 33
M  V30 41 1 7 37
M  V30 42 1 7 38
M  V30 43 1 7 39
M  V30 44 1 9 40
M  V30 45 1 10 41
M  V30 46 1 11 42
M  V30 47 1 12 43
M  V30 48 1 13 44
M  V30 49 1 15 45
M  V30 50 1 20 46
M  V30 51 1 20 47
M  V30 52 1 21 48
M  V30 53 1 21 49
M  V30 54 1 23 50
M  V30 55 1 25 51
M  V30 56 1 26 52
M  V30 57 1 26 53
M  V30 58 1 27 54
M  V30 59 1 27 55
M  V30 60 1 28 56
M  V30 61 1 29 57
M  V30 62 1 30 58
M  V30 63 1 30 59
M  V30 64 1 31 60
M  V30 65 1 31 61
M  V30 66 1 33 62
M  V30 67 1 33 63
M  V30 68 1 35 64
M  V30 69 1 35 65
M  V30 70 1 36 66
M  V30 71 1 36 67
M  V30 72 1 36 68
M  V30 END BOND
M  V30 END CTAB
M  END
>  <level_0>
106

>  <index>
106

>  <NO.>
107

>  <Name>
chembl1950329

>  <SMILES>
CCOc1ccc(Cc2nc3cc(N(C)S(=O)(=O)c4cccs4)ccc3n2CC2CCCCC2)nc1

>  <logBB>
-1.15

>  <Class>
-1

>  <MW>
524.19

>  <nHBAcc>
6

>  <nHBDon>
0

>  <SLogP>
5.89

>  <TopoPSA>
77.32

>  <MMFF94 Energy>
53.662

$$$$
CCCCCCCCCCCCCCCCOP(=O)(O)OCC[N+](C)(C)C
Actelion Java MolfileCreator 2.0

  0  0  0  0  0  0              0 V3000
M  V30 BEGIN CTAB
M  V30 COUNTS 74 73 0 0 0
M  V30 BEGIN ATOM
M  V30 1 P -4.8457 2.3424 -4.6108 0 CFG=2
M  V30 2 O -4.3313 2.5893 -5.9837 0
M  V30 3 O -5.4997 3.6081 -3.8666 0
M  V30 4 O -3.8152 1.7185 -3.5556 0
M  V30 5 O -6.0414 1.2677 -4.5975 0
M  V30 6 C -6.2251 3.3862 -2.6682 0
M  V30 7 C -2.5394 2.3377 -3.4756 0
M  V30 8 C -7.7261 3.3575 -2.9876 0
M  V30 9 C -1.7776 1.7258 -2.308 0
M  V30 10 N -8.6048 2.702 -1.9037 0 CHG=1
M  V30 11 C -0.3891 2.3425 -2.1555 0
M  V30 12 C -8.3337 1.2016 -1.8259 0
M  V30 13 C -10.0691 2.8988 -2.3073 0
M  V30 14 C -8.3885 3.344 -0.5419 0
M  V30 15 C 0.3689 1.7229 -0.9794 0
M  V30 16 C 1.7613 2.34 -0.8316 0
M  V30 17 C 2.5217 1.8392 0.3995 0
M  V30 18 C 2.8775 0.3526 0.3319 0
M  V30 19 C 3.7341 -0.0665 1.5287 0
M  V30 20 C 4.088 -1.5532 1.4661 0
M  V30 21 C 4.9445 -1.9719 2.662 0
M  V30 22 C 5.2984 -3.4586 2.5993 0
M  V30 23 C 6.1558 -3.8777 3.7955 0
M  V30 24 C 6.5019 -5.368 3.7338 0
M  V30 25 C 7.36 -5.834 4.9149 0
M  V30 26 C 8.8644 -5.8811 4.6327 0
M  V30 27 C 9.4926 -4.5296 4.3412 0
M  V30 28 H -5.8508 0.5954 -5.2845 0
M  V30 29 H -5.8778 2.4699 -2.1858 0
M  V30 30 H -6.0025 4.2143 -1.9876 0
M  V30 31 H -2.0038 2.1706 -4.4157 0
M  V30 32 H -2.6682 3.4154 -3.3277 0
M  V30 33 H -8.0856 4.3865 -3.1153 0
M  V30 34 H -7.9316 2.8317 -3.9266 0
M  V30 35 H -2.3569 1.8616 -1.3861 0
M  V30 36 H -1.698 0.6415 -2.455 0
M  V30 37 H -0.4831 3.4246 -2.0034 0
M  V30 38 H 0.1823 2.1941 -3.0797 0
M  V30 39 H -9.0513 0.7593 -1.1282 0
M  V30 40 H -8.4596 0.7735 -2.8243 0
M  V30 41 H -7.3179 1.0399 -1.4594 0
M  V30 42 H -10.2234 2.4351 -3.2861 0
M  V30 43 H -10.704 2.4225 -1.5543 0
M  V30 44 H -10.2738 3.9725 -2.3532 0
M  V30 45 H -9.1027 2.9085 0.1634 0
M  V30 46 H -7.3672 3.1369 -0.2119 0
M  V30 47 H -8.5527 4.4211 -0.6379 0
M  V30 48 H 0.4516 0.642 -1.1373 0
M  V30 49 H -0.2008 1.8749 -0.0548 0
M  V30 50 H 1.6629 3.4298 -0.7514 0
M  V30 51 H 2.352 2.1424 -1.7342 0
M  V30 52 H 1.9317 2.0385 1.3024 0
M  V30 53 H 3.4453 2.4243 0.4909 0
M  V30 54 H 3.4205 0.1463 -0.598 0
M  V30 55 H 1.9641 -0.2521 0.317 0
M  V30 56 H 3.1926 0.1435 2.4592 0
M  V30 57 H 4.6548 0.5291 1.5486 0
M  V30 58 H 4.6288 -1.7629 0.5353 0
M  V30 59 H 3.1676 -2.1494 1.4468 0
M  V30 60 H 4.4036 -1.7621 3.5928 0
M  V30 61 H 5.8648 -1.3757 2.6813 0
M  V30 62 H 5.8397 -3.668 1.6688 0
M  V30 63 H 4.3779 -4.0546 2.5796 0
M  V30 64 H 5.6114 -3.6689 4.7248 0
M  V30 65 H 7.0665 -3.2717 3.8171 0
M  V30 66 H 6.9916 -5.6103 2.7835 0
M  V30 67 H 5.5608 -5.9326 3.7527 0
M  V30 68 H 7.0518 -6.8561 5.1705 0
M  V30 69 H 7.1624 -5.2236 5.8041 0
M  V30 70 H 9.3632 -6.3136 5.5085 0
M  V30 71 H 9.0621 -6.5596 3.7946 0
M  V30 72 H 10.5817 -4.6265 4.2863 0
M  V30 73 H 9.1517 -4.1316 3.3812 0
M  V30 74 H 9.2568 -3.8058 5.1273 0
M  V30 END ATOM
M  V30 BEGIN BOND
M  V30 1 2 1 2
M  V30 2 1 1 3
M  V30 3 1 1 4
M  V30 4 1 1 5
M  V30 5 1 3 6
M  V30 6 1 4 7
M  V30 7 1 6 8
M  V30 8 1 7 9
M  V30 9 1 8 10
M  V30 10 1 9 11
M  V30 11 1 10 12
M  V30 12 1 10 13
M  V30 13 1 10 14
M  V30 14 1 11 15
M  V30 15 1 15 16
M  V30 16 1 16 17
M  V30 17 1 17 18
M  V30 18 1 18 19
M  V30 19 1 19 20
M  V30 20 1 20 21
M  V30 21 1 21 22
M  V30 22 1 22 23
M  V30 23 1 23 24
M  V30 24 1 24 25
M  V30 25 1 25 26
M  V30 26 1 26 27
M  V30 27 1 5 28
M  V30 28 1 6 29
M  V30 29 1 6 30
M  V30 30 1 7 31
M  V30 31 1 7 32
M  V30 32 1 8 33
M  V30 33 1 8 34
M  V30 34 1 9 35
M  V30 35 1 9 36
M  V30 36 1 11 37
M  V30 37 1 11 38
M  V30 38 1 12 39
M  V30 39 1 12 40
M  V30 40 1 12 41
M  V30 41 1 13 42
M  V30 42 1 13 43
M  V30 43 1 13 44
M  V30 44 1 14 45
M  V30 45 1 14 46
M  V30 46 1 14 47
M  V30 47 1 15 48
M  V30 48 1 15 49
M  V30 49 1 16 50
M  V30 50 1 16 51
M  V30 51 1 17 52
M  V30 52 1 17 53
M  V30 53 1 18 54
M  V30 54 1 18 55
M  V30 55 1 19 56
M  V30 56 1 19 57
M  V30 57 1 20 58
M  V30 58 1 20 59
M  V30 59 1 21 60
M  V30 60 1 21 61
M  V30 61 1 22 62
M  V30 62 1 22 63
M  V30 63 1 23 64
M  V30 64 1 23 65
M  V30 65 1 24 66
M  V30 66 1 24 67
M  V30 67 1 25 68
M  V30 68 1 25 69
M  V30 69 1 26 70
M  V30 70 1 26 71
M  V30 71 1 27 72
M  V30 72 1 27 73
M  V30 73 1 27 74
M  V30 END BOND
M  V30 BEGIN COLLECTION
M  V30 MDLV30/STERAC1 ATOMS=(1 1)
M  V30 END COLLECTION
M  V30 END CTAB
M  END
>  <level_0>
108

>  <index>
108

>  <NO.>
109

>  <Name>
miltefosine

>  <SMILES>
CCCCCCCCCCCCCCCCOP(=O)(O)OCC[N+](C)(C)C

>  <logBB>
-1.14

>  <Class>
-1

>  <MW>
408.32

>  <nHBAcc>
3

>  <nHBDon>
1

>  <SLogP>
6.31

>  <TopoPSA>
55.76

>  <MMFF94 Energy>
-107.79

$$$$
CCCCc1oc2ccccc2c1C(=O)c1cc(I)c(OCCN(CC)CC)c(I)c1
Actelion Java MolfileCreator 2.0

  0  0  0  0  0  0              0 V3000
M  V30 BEGIN CTAB
M  V30 COUNTS 60 62 0 0 0
M  V30 BEGIN ATOM
M  V30 1 I -0.972 -2.5126 -2.107 0
M  V30 2 C -0.8499 -0.7721 -0.9392 0
M  V30 3 C -1.9665 -0.2186 -0.2922 0
M  V30 4 C 0.3987 -0.1466 -0.8576 0
M  V30 5 O -3.1925 -0.8261 -0.3887 0
M  V30 6 C -1.833 1.0064 0.3798 0
M  V30 7 C 0.5264 1.0633 -0.1663 0
M  V30 8 C -3.3968 -1.7494 0.699 0
M  V30 9 I -3.4661 2.0017 1.2448 0
M  V30 10 C -0.5866 1.635 0.4602 0
M  V30 11 C 1.8346 1.7543 -0.0497 0
M  V30 12 C -4.7401 -2.4606 0.4671 0
M  V30 13 O 2.1205 2.2629 1.0311 0
M  V30 14 C 2.7314 1.7939 -1.1938 0
M  V30 15 N -5.0477 -3.4651 1.5093 0
M  V30 16 C 2.4426 1.8702 -2.5976 0
M  V30 17 C 4.1155 1.8018 -1.0962 0
M  V30 18 C -6.002 -4.4682 0.9972 0
M  V30 19 C -5.584 -2.8026 2.7153 0
M  V30 20 C 3.6758 1.8701 -3.2397 0
M  V30 21 C 1.2858 1.9564 -3.4008 0
M  V30 22 O 4.6844 1.8245 -2.3326 0
M  V30 23 C 5.0666 1.7733 0.0485 0
M  V30 24 C -5.321 -5.4955 0.097 0
M  V30 25 C -5.4454 -3.6763 3.9585 0
M  V30 26 C 3.8462 1.9197 -4.6215 0
M  V30 27 C 1.4241 2.0071 -4.7959 0
M  V30 28 C 5.4571 3.1868 0.4823 0
M  V30 29 C 2.6843 1.985 -5.3946 0
M  V30 30 C 6.4263 3.1569 1.6638 0
M  V30 31 C 6.8181 4.5601 2.0985 0
M  V30 32 H 1.2664 -0.5973 -1.335 0
M  V30 33 H -3.4013 -1.2072 1.6496 0
M  V30 34 H -2.5913 -2.4931 0.7311 0
M  V30 35 H -0.4719 2.5766 0.9958 0
M  V30 36 H -5.5492 -1.7231 0.3742 0
M  V30 37 H -4.6712 -2.9282 -0.522 0
M  V30 38 H -6.4468 -5.0347 1.8224 0
M  V30 39 H -6.8344 -3.989 0.4665 0
M  V30 40 H -5.0292 -1.8816 2.9264 0
M  V30 41 H -6.6312 -2.507 2.5728 0
M  V30 42 H 0.292 1.9924 -2.9643 0
M  V30 43 H 5.9646 1.2136 -0.2406 0
M  V30 44 H 4.6203 1.2298 0.8893 0
M  V30 45 H -6.0364 -6.2762 -0.1821 0
M  V30 46 H -4.4859 -5.9783 0.6157 0
M  V30 47 H -4.9414 -5.0538 -0.8282 0
M  V30 48 H -5.7565 -3.1129 4.8448 0
M  V30 49 H -4.4049 -3.984 4.1074 0
M  V30 50 H -6.0663 -4.5749 3.9081 0
M  V30 51 H 4.8339 1.9144 -5.0665 0
M  V30 52 H 0.5345 2.07 -5.4198 0
M  V30 53 H 4.56 3.7555 0.7582 0
M  V30 54 H 5.9192 3.7187 -0.3592 0
M  V30 55 H 2.7659 2.0281 -6.4787 0
M  V30 56 H 5.9655 2.6341 2.51 0
M  V30 57 H 7.3297 2.5997 1.3904 0
M  V30 58 H 7.5112 4.5152 2.9444 0
M  V30 59 H 7.3109 5.1 1.2838 0
M  V30 60 H 5.9394 5.1343 2.4096 0
M  V30 END ATOM
M  V30 BEGIN BOND
M  V30 1 1 1 2
M  V30 2 2 2 3
M  V30 3 1 2 4
M  V30 4 1 3 5
M  V30 5 1 3 6
M  V30 6 2 4 7
M  V30 7 1 5 8
M  V30 8 1 6 9
M  V30 9 2 6 10
M  V30 10 1 7 11
M  V30 11 1 8 12
M  V30 12 2 11 13
M  V30 13 1 11 14
M  V30 14 1 12 15
M  V30 15 1 14 16
M  V30 16 2 14 17
M  V30 17 1 15 18
M  V30 18 1 15 19
M  V30 19 2 16 20
M  V30 20 1 16 21
M  V30 21 1 17 22
M  V30 22 1 17 23
M  V30 23 1 18 24
M  V30 24 1 19 25
M  V30 25 1 20 26
M  V30 26 2 21 27
M  V30 27 1 23 28
M  V30 28 2 26 29
M  V30 29 1 28 30
M  V30 30 1 30 31
M  V30 31 1 7 10
M  V30 32 1 20 22
M  V30 33 1 27 29
M  V30 34 1 4 32
M  V30 35 1 8 33
M  V30 36 1 8 34
M  V30 37 1 10 35
M  V30 38 1 12 36
M  V30 39 1 12 37
M  V30 40 1 18 38
M  V30 41 1 18 39
M  V30 42 1 19 40
M  V30 43 1 19 41
M  V30 44 1 21 42
M  V30 45 1 23 43
M  V30 46 1 23 44
M  V30 47 1 24 45
M  V30 48 1 24 46
M  V30 49 1 24 47
M  V30 50 1 25 48
M  V30 51 1 25 49
M  V30 52 1 25 50
M  V30 53 1 26 51
M  V30 54 1 27 52
M  V30 55 1 28 53
M  V30 56 1 28 54
M  V30 57 1 29 55
M  V30 58 1 30 56
M  V30 59 1 30 57
M  V30 60 1 31 58
M  V30 61 1 31 59
M  V30 62 1 31 60
M  V30 END BOND
M  V30 END CTAB
M  END
>  <level_0>
121

>  <index>
121

>  <NO.>
122

>  <Name>
amiodarone

>  <SMILES>
CCCCc1oc2ccccc2c1C(=O)c1cc(I)c(OCCN(CC)CC)c(I)c1

>  <logBB>
-1.08

>  <Class>
-1

>  <MW>
645.02

>  <nHBAcc>
4

>  <nHBDon>
0

>  <SLogP>
6.94

>  <TopoPSA>
42.68

>  <MMFF94 Energy>
92.915

$$$$
CCC1(O)CC2CN(CCc3c([nH]c4ccccc34)C(C(=O)OC)(c3cc4c(cc3OC)N(C=O)C3C(O)(C(=O)OC)C(OC(C)=O)C5(CC)C=CCN6CCC43C65)C2)C1
Actelion Java MolfileCreator 2.0

  0  0  0  0  0  0              0 V3000
M  V30 BEGIN CTAB
M  V30 COUNTS 116 124 0 0 0
M  V30 BEGIN ATOM
M  V30 1 O -1.9367 0.5645 4.2808 0
M  V30 2 C -2.435 -0.1775 3.4341 0
M  V30 3 O -3.5268 -0.9648 3.6677 0
M  V30 4 C -1.956 -0.2481 1.9324 0
M  V30 5 C -4.0254 -0.8906 5.0023 0
M  V30 6 C -0.3826 -0.2406 1.8963 0
M  V30 7 C -2.5751 1.0639 1.3426 0
M  V30 8 C -2.428 -1.5935 1.2818 0
M  V30 9 C 0.3681 -1.095 2.7499 0
M  V30 10 C 0.3273 0.5845 0.9899 0
M  V30 11 N -2.0559 2.2698 1.8051 0
M  V30 12 C -3.6412 1.4189 0.5036 0
M  V30 13 C -1.8264 -2.0026 -0.096 0
M  V30 14 O -0.3418 -1.9475 3.5589 0
M  V30 15 C 1.7682 -1.1027 2.711 0
M  V30 16 C 1.7173 0.6017 0.9986 0
M  V30 17 C -2.55 3.3373 1.1093 0
M  V30 18 C -3.556 2.8444 0.291 0
M  V30 19 C -4.7464 0.5863 -0.0966 0
M  V30 20 C -2.2571 -1.0579 -1.2082 0
M  V30 21 C -2.197 -3.4517 -0.5197 0
M  V30 22 C 0.2832 -2.3 4.7913 0
M  V30 23 C 2.4215 -0.2408 1.8489 0
M  V30 24 C 2.6552 1.4966 0.2269 0
M  V30 25 C -2.2061 4.6925 1.1731 0
M  V30 26 C -4.2725 3.7634 -0.5066 0
M  V30 27 C -4.4648 -0.0171 -1.4861 0
M  V30 28 N -3.6924 -1.2207 -1.301 0
M  V30 29 C -3.6323 -3.6641 -1.0965 0
M  V30 30 N 3.8008 -0.0783 1.6684 0
M  V30 31 C 4.0583 0.8568 0.5288 0
M  V30 32 C 2.361 1.735 -1.2581 0
M  V30 33 C 2.5954 2.9386 0.7952 0
M  V30 34 C -2.9189 5.5783 0.3615 0
M  V30 35 C -3.9398 5.1229 -0.4675 0
M  V30 36 C -4.0666 -2.4501 -1.9729 0
M  V30 37 O -3.5668 -4.8233 -1.9464 0
M  V30 38 C -4.6434 -3.9701 0.038 0
M  V30 39 C 4.7886 -0.5924 2.4803 0
M  V30 40 C 4.7371 0.1724 -0.6998 0
M  V30 41 N 3.2533 2.8934 -1.4583 0
M  V30 42 C 2.6503 0.5596 -2.2505 0
M  V30 43 C 2.9729 3.8371 -0.3802 0
M  V30 44 C -6.0003 -4.487 -0.4344 0
M  V30 45 O 4.6504 -1.3185 3.4579 0
M  V30 46 O 5.6589 -0.8473 -0.2095 0
M  V30 47 C 5.7025 1.0724 -1.4964 0
M  V30 48 C 3.6974 -0.4576 -1.6647 0
M  V30 49 C 3.1454 3.4736 -2.7904 0
M  V30 50 C 3.185 1.1046 -3.583 0
M  V30 51 C 1.3195 -0.195 -2.6023 0
M  V30 52 O 6.1355 0.7764 -2.6074 0
M  V30 53 O 6.1203 2.158 -0.7877 0
M  V30 54 O 2.9828 -1.5192 -0.9662 0
M  V30 55 C 3.3675 2.4135 -3.8232 0
M  V30 56 C 0.2674 0.5983 -3.382 0
M  V30 57 C 7.0507 2.9878 -1.483 0
M  V30 58 C 3.5606 -2.7502 -0.9522 0
M  V30 59 O 4.6248 -3.0279 -1.4884 0
M  V30 60 C 2.7281 -3.7069 -0.1567 0
M  V30 61 H -4.8788 -1.5693 5.0832 0
M  V30 62 H -3.2605 -1.2106 5.7168 0
M  V30 63 H -4.368 0.1241 5.2273 0
M  V30 64 H -3.5173 -1.5897 1.2364 0
M  V30 65 H -2.1951 -2.4172 1.9703 0
M  V30 66 H -0.1985 1.226 0.2878 0
M  V30 67 H -1.3454 2.3393 2.5241 0
M  V30 68 H -0.7333 -1.9839 -0.0229 0
M  V30 69 H 2.3416 -1.779 3.3326 0
M  V30 70 H -5.0547 -0.1893 0.6148 0
M  V30 71 H -5.6355 1.225 -0.1924 0
M  V30 72 H -1.9433 -0.034 -0.9986 0
M  V30 73 H -1.7696 -1.3227 -2.1535 0
M  V30 74 H -1.4804 -3.7483 -1.3003 0
M  V30 75 H -2.0063 -4.1489 0.3059 0
M  V30 76 H 1.0343 -3.0798 4.6332 0
M  V30 77 H -0.4892 -2.711 5.4484 0
M  V30 78 H 0.7169 -1.4273 5.292 0
M  V30 79 H -1.4232 5.049 1.8343 0
M  V30 80 H -5.0758 3.4247 -1.1536 0
M  V30 81 H -3.9741 0.6957 -2.1591 0
M  V30 82 H -5.4349 -0.259 -1.9371 0
M  V30 83 H 4.7464 1.5968 0.9533 0
M  V30 84 H 1.3248 2.0764 -1.3773 0
M  V30 85 H 3.2622 3.0869 1.652 0
M  V30 86 H 1.5825 3.1995 1.129 0
M  V30 87 H -2.6798 6.6389 0.3872 0
M  V30 88 H -4.4902 5.8279 -1.0856 0
M  V30 89 H -5.145 -2.4945 -2.1553 0
M  V30 90 H -3.6068 -2.5088 -2.9683 0
M  V30 91 H -3.2922 -5.5752 -1.3937 0
M  V30 92 H -4.8172 -3.0901 0.6608 0
M  V30 93 H -4.2217 -4.7444 0.6917 0
M  V30 94 H 5.793 -0.2563 2.1732 0
M  V30 95 H 2.1369 4.5068 -0.6158 0
M  V30 96 H 3.8536 4.4458 -0.1526 0
M  V30 97 H -6.5388 -3.7385 -1.0212 0
M  V30 98 H -5.8988 -5.3949 -1.0363 0
M  V30 99 H -6.6236 -4.7332 0.4318 0
M  V30 100 H 5.8268 -1.4766 -0.9443 0
M  V30 101 H 4.2165 -0.9309 -2.5097 0
M  V30 102 H 3.9184 4.2415 -2.908 0
M  V30 103 H 2.1712 3.9472 -2.9615 0
M  V30 104 H 3.3929 0.3903 -4.3784 0
M  V30 105 H 1.5614 -1.0866 -3.1975 0
M  V30 106 H 0.8428 -0.5593 -1.6857 0
M  V30 107 H 3.708 2.7378 -4.8029 0
M  V30 108 H -0.5743 -0.0537 -3.6336 0
M  V30 109 H -0.1311 1.4339 -2.8011 0
M  V30 110 H 0.6566 0.9853 -4.3275 0
M  V30 111 H 7.2736 3.8503 -0.849 0
M  V30 112 H 7.9818 2.4439 -1.6688 0
M  V30 113 H 6.6186 3.3518 -2.4205 0
M  V30 114 H 2.8808 -3.5287 0.9098 0
M  V30 115 H 1.6719 -3.5908 -0.4155 0
M  V30 116 H 3.0239 -4.7311 -0.3998 0
M  V30 END ATOM
M  V30 BEGIN BOND
M  V30 1 2 1 2
M  V30 2 1 2 3
M  V30 3 1 2 4
M  V30 4 1 3 5
M  V30 5 1 4 6
M  V30 6 1 4 7
M  V30 7 1 4 8
M  V30 8 2 6 9
M  V30 9 1 6 10
M  V30 10 1 7 11
M  V30 11 2 7 12
M  V30 12 1 8 13
M  V30 13 1 9 14
M  V30 14 1 9 15
M  V30 15 2 10 16
M  V30 16 1 11 17
M  V30 17 1 12 18
M  V30 18 1 12 19
M  V30 19 1 13 20
M  V30 20 1 13 21
M  V30 21 1 14 22
M  V30 22 2 15 23
M  V30 23 1 16 24
M  V30 24 1 17 25
M  V30 25 1 18 26
M  V30 26 1 19 27
M  V30 27 1 20 28
M  V30 28 1 21 29
M  V30 29 1 23 30
M  V30 30 1 24 31
M  V30 31 1 24 32
M  V30 32 1 24 33
M  V30 33 2 25 34
M  V30 34 2 26 35
M  V30 35 1 28 36
M  V30 36 1 29 37
M  V30 37 1 29 38
M  V30 38 1 30 39
M  V30 39 1 31 40
M  V30 40 1 32 41
M  V30 41 1 32 42
M  V30 42 1 33 43
M  V30 43 1 38 44
M  V30 44 2 39 45
M  V30 45 1 40 46
M  V30 46 1 40 47
M  V30 47 1 40 48
M  V30 48 1 41 49
M  V30 49 1 42 50
M  V30 50 1 42 51
M  V30 51 2 47 52
M  V30 52 1 47 53
M  V30 53 1 48 54
M  V30 54 1 49 55
M  V30 55 1 51 56
M  V30 56 1 53 57
M  V30 57 1 54 58
M  V30 58 2 58 59
M  V30 59 1 58 60
M  V30 60 1 16 23
M  V30 61 2 17 18
M  V30 62 1 27 28
M  V30 63 1 29 36
M  V30 64 1 30 31
M  V30 65 1 34 35
M  V30 66 1 41 43
M  V30 67 1 42 48
M  V30 68 2 50 55
M  V30 69 1 5 61
M  V30 70 1 5 62
M  V30 71 1 5 63
M  V30 72 1 8 64
M  V30 73 1 8 65
M  V30 74 1 10 66
M  V30 75 1 11 67
M  V30 76 1 13 68
M  V30 77 1 15 69
M  V30 78 1 19 70
M  V30 79 1 19 71
M  V30 80 1 20 72
M  V30 81 1 20 73
M  V30 82 1 21 74
M  V30 83 1 21 75
M  V30 84 1 22 76
M  V30 85 1 22 77
M  V30 86 1 22 78
M  V30 87 1 25 79
M  V30 88 1 26 80
M  V30 89 1 27 81
M  V30 90 1 27 82
M  V30 91 1 31 83
M  V30 92 1 32 84
M  V30 93 1 33 85
M  V30 94 1 33 86
M  V30 95 1 34 87
M  V30 96 1 35 88
M  V30 97 1 36 89
M  V30 98 1 36 90
M  V30 99 1 37 91
M  V30 100 1 38 92
M  V30 101 1 38 93
M  V30 102 1 39 94
M  V30 103 1 43 95
M  V30 104 1 43 96
M  V30 105 1 44 97
M  V30 106 1 44 98
M  V30 107 1 44 99
M  V30 108 1 46 100
M  V30 109 1 48 101
M  V30 110 1 49 102
M  V30 111 1 49 103
M  V30 112 1 50 104
M  V30 113 1 51 105
M  V30 114 1 51 106
M  V30 115 1 55 107
M  V30 116 1 56 108
M  V30 117 1 56 109
M  V30 118 1 56 110
M  V30 119 1 57 111
M  V30 120 1 57 112
M  V30 121 1 57 113
M  V30 122 1 60 114
M  V30 123 1 60 115
M  V30 124 1 60 116
M  V30 END BOND
M  V30 END CTAB
M  END
>  <level_0>
125

>  <index>
125

>  <NO.>
126

>  <Name>
vincristine

>  <SMILES>
CCC1(O)CC2CN(CCc3c([nH]c4ccccc34)C(C(=O)OC)(c3cc4c(cc3OC)N(C=O)C3C(O)(C(=O)OC)C(OC(C)=O)C5(CC)C=CCN6CCC43C65)C2)C1

>  <logBB>
-1.03

>  <Class>
-1

>  <MW>
824.4

>  <nHBAcc>
12

>  <nHBDon>
3

>  <SLogP>
3.52

>  <TopoPSA>
171.17

>  <MMFF94 Energy>
256.39

$$$$
CC(C)(C(=O)O)c1ccc(C(O)CCCN2CCC(C(O)(c3ccccc3)c3ccccc3)CC2)cc1
Actelion Java MolfileCreator 2.0

  0  0  0  0  0  0              0 V3000
M  V30 BEGIN CTAB
M  V30 COUNTS 76 79 0 0 0
M  V30 BEGIN ATOM
M  V30 1 O -5.0156 6.2127 1.431 0
M  V30 2 C -5.361 5.0821 1.1223 0
M  V30 3 O -6.6235 4.6901 1.3977 0
M  V30 4 C -4.5314 4.034 0.3625 0
M  V30 5 C -3.0373 4.1574 0.7188 0
M  V30 6 C -4.8442 4.278 -1.1286 0
M  V30 7 C -4.986 2.6011 0.7158 0
M  V30 8 C -2.0318 4.2943 -0.2502 0
M  V30 9 C -2.6348 4.1034 2.0669 0
M  V30 10 C -0.6825 4.3834 0.113 0
M  V30 11 C -1.2873 4.1926 2.4297 0
M  V30 12 C -0.2925 4.3411 1.457 0
M  V30 13 C 1.1773 4.4249 1.8174 0 CFG=1
M  V30 14 O 1.3675 5.0263 3.0981 0
M  V30 15 C 1.9029 3.0746 1.7583 0
M  V30 16 C 1.456 2.071 2.8306 0
M  V30 17 C 2.2436 0.7529 2.7738 0
M  V30 18 N 2.1935 0.0614 1.473 0
M  V30 19 C 3.1466 -1.0551 1.4598 0
M  V30 20 C 0.8394 -0.4043 1.1448 0
M  V30 21 C 3.1726 -1.7464 0.0956 0
M  V30 22 C 0.7952 -1.1015 -0.2177 0
M  V30 23 C 1.778 -2.294 -0.2864 0
M  V30 24 C 1.7586 -3.0138 -1.6882 0
M  V30 25 O 2.2135 -2.029 -2.6392 0
M  V30 26 C 0.3239 -3.4428 -2.0611 0
M  V30 27 C 2.6976 -4.235 -1.8181 0
M  V30 28 C -0.3641 -4.3985 -1.288 0
M  V30 29 C -0.3416 -2.9001 -3.1754 0
M  V30 30 C 3.1137 -5.0042 -0.7173 0
M  V30 31 C 3.1148 -4.6551 -3.0989 0
M  V30 32 C -1.6644 -4.7912 -1.6154 0
M  V30 33 C -1.6423 -3.2928 -3.5013 0
M  V30 34 C 3.946 -6.1155 -0.8852 0
M  V30 35 C 3.9449 -5.7654 -3.2664 0
M  V30 36 C -2.3032 -4.2375 -2.7212 0
M  V30 37 C 4.3653 -6.4921 -2.1577 0
M  V30 38 H -7.0157 5.4735 1.8387 0
M  V30 39 H -4.5116 5.2721 -1.4512 0
M  V30 40 H -4.3663 3.531 -1.7725 0
M  V30 41 H -5.9231 4.2273 -1.3207 0
M  V30 42 H -6.0163 2.4122 0.3914 0
M  V30 43 H -4.3487 1.8512 0.2319 0
M  V30 44 H -4.9541 2.418 1.7963 0
M  V30 45 H -2.2661 4.3308 -1.3107 0
M  V30 46 H -3.3718 3.9913 2.8604 0
M  V30 47 H 0.0663 4.4821 -0.6708 0
M  V30 48 H -1.0203 4.1331 3.4833 0
M  V30 49 H 1.6614 5.1013 1.1014 0
M  V30 50 H 0.7822 5.8034 3.1253 0
M  V30 51 H 1.7785 2.6407 0.7592 0
M  V30 52 H 2.9763 3.2572 1.8995 0
M  V30 53 H 1.6042 2.5101 3.825 0
M  V30 54 H 0.3844 1.8657 2.7447 0
M  V30 55 H 3.2888 0.9935 3.0097 0
M  V30 56 H 1.8876 0.0906 3.574 0
M  V30 57 H 2.9054 -1.7875 2.2417 0
M  V30 58 H 4.1573 -0.6814 1.6653 0
M  V30 59 H 0.1448 0.4409 1.0931 0
M  V30 60 H 0.4647 -1.0871 1.9187 0
M  V30 61 H 3.5224 -1.0283 -0.6569 0
M  V30 62 H 3.9163 -2.5477 0.1314 0
M  V30 63 H 1.027 -0.3713 -1.0038 0
M  V30 64 H -0.2334 -1.437 -0.3887 0
M  V30 65 H 1.4674 -3.0062 0.4899 0
M  V30 66 H 3.1847 -2.0586 -2.6309 0
M  V30 67 H 0.111 -4.8536 -0.4225 0
M  V30 68 H 0.1498 -2.1573 -3.8006 0
M  V30 69 H 2.7946 -4.7618 0.2924 0
M  V30 70 H 2.7759 -4.1185 -3.9847 0
M  V30 71 H -2.1763 -5.5328 -1.0077 0
M  V30 72 H -2.1366 -2.8583 -4.3662 0
M  V30 73 H 4.2604 -6.6929 -0.0192 0
M  V30 74 H 4.2523 -6.0664 -4.2645 0
M  V30 75 H -3.3139 -4.5436 -2.977 0
M  V30 76 H 5.0078 -7.359 -2.2862 0
M  V30 END ATOM
M  V30 BEGIN BOND
M  V30 1 2 1 2
M  V30 2 1 2 3
M  V30 3 1 2 4
M  V30 4 1 4 5
M  V30 5 1 4 6
M  V30 6 1 4 7
M  V30 7 2 5 8
M  V30 8 1 5 9
M  V30 9 1 8 10
M  V30 10 2 9 11
M  V30 11 2 10 12
M  V30 12 1 12 13
M  V30 13 1 13 14
M  V30 14 1 13 15
M  V30 15 1 15 16
M  V30 16 1 16 17
M  V30 17 1 17 18
M  V30 18 1 18 19
M  V30 19 1 18 20
M  V30 20 1 19 21
M  V30 21 1 20 22
M  V30 22 1 21 23
M  V30 23 1 23 24
M  V30 24 1 24 25
M  V30 25 1 24 26
M  V30 26 1 24 27
M  V30 27 2 26 28
M  V30 28 1 26 29
M  V30 29 2 27 30
M  V30 30 1 27 31
M  V30 31 1 28 32
M  V30 32 2 29 33
M  V30 33 1 30 34
M  V30 34 2 31 35
M  V30 35 2 32 36
M  V30 36 2 34 37
M  V30 37 1 11 12
M  V30 38 1 22 23
M  V30 39 1 33 36
M  V30 40 1 35 37
M  V30 41 1 3 38
M  V30 42 1 6 39
M  V30 43 1 6 40
M  V30 44 1 6 41
M  V30 45 1 7 42
M  V30 46 1 7 43
M  V30 47 1 7 44
M  V30 48 1 8 45
M  V30 49 1 9 46
M  V30 50 1 10 47
M  V30 51 1 11 48
M  V30 52 1 13 49
M  V30 53 1 14 50
M  V30 54 1 15 51
M  V30 55 1 15 52
M  V30 56 1 16 53
M  V30 57 1 16 54
M  V30 58 1 17 55
M  V30 59 1 17 56
M  V30 60 1 19 57
M  V30 61 1 19 58
M  V30 62 1 20 59
M  V30 63 1 20 60
M  V30 64 1 21 61
M  V30 65 1 21 62
M  V30 66 1 22 63
M  V30 67 1 22 64
M  V30 68 1 23 65
M  V30 69 1 25 66
M  V30 70 1 28 67
M  V30 71 1 29 68
M  V30 72 1 30 69
M  V30 73 1 31 70
M  V30 74 1 32 71
M  V30 75 1 33 72
M  V30 76 1 34 73
M  V30 77 1 35 74
M  V30 78 1 36 75
M  V30 79 1 37 76
M  V30 END BOND
M  V30 BEGIN COLLECTION
M  V30 MDLV30/STERAC1 ATOMS=(1 13)
M  V30 END COLLECTION
M  V30 END CTAB
M  END
>  <level_0>
128

>  <index>
128

>  <NO.>
129

>  <Name>
fexofenadine (allegra)

>  <SMILES>
CC(C)(C(=O)O)c1ccc(C(O)CCCN2CCC(C(O)(c3ccccc3)c3ccccc3)CC2)cc1

>  <logBB>
-1.0

>  <Class>
1

>  <MW>
501.29

>  <nHBAcc>
4

>  <nHBDon>
3

>  <SLogP>
5.51

>  <TopoPSA>
81.0

>  <MMFF94 Energy>
95.214

$$$$
CCC(C)C1OC2(CCC1C)CC1CC(CC=C(C)C(OC3CC(OC)C(OC4CC(OC)C(O)C(C)O4)C(C)O3)C(C)C=CC=C3COC4C(O)C(C)=CC(C(=O)O1)C34O)O2
Actelion Java MolfileCreator 2.0

  0  0  0  0  0  0              0 V3000
M  V30 BEGIN CTAB
M  V30 COUNTS 136 142 0 0 0
M  V30 BEGIN ATOM
M  V30 1 O -1.3573 -0.399 -4.3164 0
M  V30 2 C -1.4007 -0.1688 -3.1138 0
M  V30 3 O -0.3754 0.3522 -2.3814 0
M  V30 4 C -2.6129 -0.4262 -2.2283 0
M  V30 5 C 0.9046 0.54 -3.0409 0
M  V30 6 C -3.4958 0.8009 -2.2662 0
M  V30 7 C -3.3956 -1.7092 -2.6171 0
M  V30 8 C 1.7621 1.4008 -2.0951 0
M  V30 9 C 1.5612 -0.8193 -3.2815 0
M  V30 10 C -4.7399 0.7591 -1.7567 0
M  V30 11 O -3.6906 -1.7752 -4.0221 0
M  V30 12 C -2.7493 -3.0253 -2.2332 0
M  V30 13 C -4.7547 -1.7995 -1.8694 0
M  V30 14 C 3.2551 1.0132 -2.1721 0
M  V30 15 C 2.3041 -1.2153 -2.0086 0
M  V30 16 C -5.2324 -0.5237 -1.1396 0
M  V30 17 C -5.6255 1.9686 -1.7059 0
M  V30 18 C -1.5163 -3.4269 -2.5837 0
M  V30 19 C -3.7265 -3.8077 -1.4189 0
M  V30 20 O -4.6166 -2.8365 -0.8665 0
M  V30 21 O 3.7707 1.2025 -3.495 0
M  V30 22 O 3.4496 -0.378 -1.8264 0
M  V30 23 C 4.1026 1.7943 -1.1566 0
M  V30 24 C 2.6972 -2.6989 -2.0615 0
M  V30 25 O -6.6607 -0.5266 -1.076 0
M  V30 26 C -0.8572 -4.6558 -2.2155 0
M  V30 27 C 3.8955 2.5599 -3.9444 0
M  V30 28 C 4.3343 3.2405 -1.57 0
M  V30 29 C 3.0006 -3.3854 -0.7505 0
M  V30 30 C -0.3578 -4.9738 -1.0099 0
M  V30 31 C 4.8522 3.3371 -3.0124 0
M  V30 32 C 4.3098 2.5271 -5.4453 0
M  V30 33 C 2.1746 -3.655 0.2883 0
M  V30 34 C -0.4203 -4.1703 0.2755 0
M  V30 35 C 6.3024 2.8438 -3.0974 0
M  V30 36 C 3.2592 1.7376 -6.2666 0
M  V30 37 C 4.5015 3.9383 -6.0123 0
M  V30 38 C 0.7388 -3.1379 0.427 0
M  V30 39 C 2.7172 -4.4643 1.4434 0
M  V30 40 C -0.6018 -5.1139 1.472 0
M  V30 41 C 3.6249 1.5542 -7.7335 0
M  V30 42 O 0.5835 -2.4902 1.6995 0
M  V30 43 C 1.2597 -1.2457 1.836 0
M  V30 44 O 0.5282 -0.1675 1.2488 0
M  V30 45 C 1.5738 -0.9849 3.3162 0
M  V30 46 C -0.6765 0.1649 1.9538 0
M  V30 47 C 0.329 -0.5992 4.1221 0
M  V30 48 C -0.3557 0.5792 3.4015 0
M  V30 49 C -1.3299 1.3111 1.1864 0
M  V30 50 O -0.4773 -1.7786 4.2494 0
M  V30 51 O -1.5293 1.0033 4.106 0
M  V30 52 C -1.5076 -1.7075 5.2193 0
M  V30 53 C -1.5104 2.3941 4.4365 0
M  V30 54 O -0.5323 2.6723 5.4344 0
M  V30 55 C -2.9187 2.8201 4.8459 0
M  V30 56 C -0.8414 2.129 6.725 0
M  V30 57 C -3.2831 2.2276 6.2061 0
M  V30 58 C -2.206 2.6266 7.2321 0
M  V30 59 C 0.3004 2.5177 7.657 0
M  V30 60 O -4.5614 2.6769 6.6795 0
M  V30 61 O -2.1905 4.0544 7.3884 0
M  V30 62 C -5.6619 2.1479 5.9543 0
M  V30 63 H -2.2428 -0.555 -1.2024 0
M  V30 64 H 0.743 1.065 -3.9898 0
M  V30 65 H -3.0988 1.7275 -2.6751 0
M  V30 66 H 1.4077 1.2756 -1.0629 0
M  V30 67 H 1.5872 2.4551 -2.3326 0
M  V30 68 H 0.8202 -1.5736 -3.5483 0
M  V30 69 H 2.2662 -0.7509 -4.1171 0
M  V30 70 H -2.8988 -1.4879 -4.5199 0
M  V30 71 H -5.5449 -2.1389 -2.5546 0
M  V30 72 H 1.6625 -1.0384 -1.1469 0
M  V30 73 H -4.8934 -0.5391 -0.0952 0
M  V30 74 H -5.1207 2.8609 -2.0912 0
M  V30 75 H -5.925 2.1791 -0.6741 0
M  V30 76 H -6.5251 1.8125 -2.3097 0
M  V30 77 H -0.9424 -2.8311 -3.2861 0
M  V30 78 H -3.2847 -4.3768 -0.5997 0
M  V30 79 H -4.3072 -4.4856 -2.0539 0
M  V30 80 H 5.077 1.3008 -1.0439 0
M  V30 81 H 3.6432 1.7516 -0.1611 0
M  V30 82 H 1.906 -3.284 -2.5451 0
M  V30 83 H 3.5841 -2.8038 -2.7002 0
M  V30 84 H -6.9055 -1.3841 -0.6828 0
M  V30 85 H -0.6663 -5.3347 -3.0469 0
M  V30 86 H 2.9082 3.0354 -3.9015 0
M  V30 87 H 5.0362 3.7175 -0.8759 0
M  V30 88 H 3.3934 3.7981 -1.487 0
M  V30 89 H 4.0184 -3.7756 -0.7079 0
M  V30 90 H 0.1899 -5.914 -0.9393 0
M  V30 91 H 4.8463 4.3989 -3.2854 0
M  V30 92 H 5.2569 1.9802 -5.5359 0
M  V30 93 H -1.3378 -3.5676 0.2717 0
M  V30 94 H 6.9245 3.3378 -2.3432 0
M  V30 95 H 6.7401 3.0737 -4.0735 0
M  V30 96 H 6.3806 1.763 -2.945 0
M  V30 97 H 2.2831 2.2336 -6.2 0
M  V30 98 H 3.134 0.7379 -5.8363 0
M  V30 99 H 5.275 4.491 -5.4722 0
M  V30 100 H 4.8232 3.9099 -7.0574 0
M  V30 101 H 3.5714 4.5137 -5.9579 0
M  V30 102 H 0.5287 -2.3912 -0.3394 0
M  V30 103 H 2.442 -4.0302 2.4084 0
M  V30 104 H 3.8116 -4.5183 1.4261 0
M  V30 105 H 2.3439 -5.4902 1.3995 0
M  V30 106 H 0.2049 -5.8463 1.5515 0
M  V30 107 H -0.6589 -4.5624 2.4157 0
M  V30 108 H -1.5367 -5.6781 1.3714 0
M  V30 109 H 4.6265 1.1262 -7.8392 0
M  V30 110 H 2.9138 0.8736 -8.213 0
M  V30 111 H 3.5885 2.5004 -8.2805 0
M  V30 112 H 2.2225 -1.2854 1.3164 0
M  V30 113 H 2.035 -1.8775 3.7545 0
M  V30 114 H 2.2933 -0.1591 3.3806 0
M  V30 115 H -1.3638 -0.6896 1.928 0
M  V30 116 H 0.6406 -0.2926 5.1279 0
M  V30 117 H 0.3813 1.3951 3.3673 0
M  V30 118 H -1.4428 1.0537 0.1317 0
M  V30 119 H -2.316 1.5584 1.5899 0
M  V30 120 H -0.7012 2.2081 1.2133 0
M  V30 121 H -2.3542 -1.1265 4.8485 0
M  V30 122 H -1.1393 -1.2994 6.1643 0
M  V30 123 H -1.8655 -2.7244 5.4042 0
M  V30 124 H -1.2391 2.9687 3.5437 0
M  V30 125 H -2.9838 3.9138 4.8961 0
M  V30 126 H -3.6373 2.4958 4.0855 0
M  V30 127 H -0.8569 1.0363 6.6496 0
M  V30 128 H -3.3098 1.1315 6.1447 0
M  V30 129 H -2.4502 2.1954 8.2099 0
M  V30 130 H 1.242 2.0885 7.2971 0
M  V30 131 H 0.1229 2.1586 8.6751 0
M  V30 132 H 0.4468 3.6028 7.6823 0
M  V30 133 H -1.7268 4.2567 8.2172 0
M  V30 134 H -5.7031 2.569 4.9467 0
M  V30 135 H -5.6113 1.056 5.9091 0
M  V30 136 H -6.5804 2.4302 6.4764 0
M  V30 END ATOM
M  V30 BEGIN BOND
M  V30 1 2 1 2
M  V30 2 1 2 3
M  V30 3 1 2 4
M  V30 4 1 3 5
M  V30 5 1 4 6
M  V30 6 1 4 7
M  V30 7 1 5 8
M  V30 8 1 5 9
M  V30 9 2 6 10
M  V30 10 1 7 11
M  V30 11 1 7 12
M  V30 12 1 7 13
M  V30 13 1 8 14
M  V30 14 1 9 15
M  V30 15 1 10 16
M  V30 16 1 10 17
M  V30 17 2 12 18
M  V30 18 1 12 19
M  V30 19 1 13 20
M  V30 20 1 14 21
M  V30 21 1 14 22
M  V30 22 1 14 23
M  V30 23 1 15 24
M  V30 24 1 16 25
M  V30 25 1 18 26
M  V30 26 1 21 27
M  V30 27 1 23 28
M  V30 28 1 24 29
M  V30 29 2 26 30
M  V30 30 1 27 31
M  V30 31 1 27 32
M  V30 32 2 29 33
M  V30 33 1 30 34
M  V30 34 1 31 35
M  V30 35 1 32 36
M  V30 36 1 32 37
M  V30 37 1 33 38
M  V30 38 1 33 39
M  V30 39 1 34 40
M  V30 40 1 36 41
M  V30 41 1 38 42
M  V30 42 1 42 43
M  V30 43 1 43 44
M  V30 44 1 43 45
M  V30 45 1 44 46
M  V30 46 1 45 47
M  V30 47 1 46 48
M  V30 48 1 46 49
M  V30 49 1 47 50
M  V30 50 1 48 51
M  V30 51 1 50 52
M  V30 52 1 51 53
M  V30 53 1 53 54
M  V30 54 1 53 55
M  V30 55 1 54 56
M  V30 56 1 55 57
M  V30 57 1 56 58
M  V30 58 1 56 59
M  V30 59 1 57 60
M  V30 60 1 58 61
M  V30 61 1 60 62
M  V30 62 1 13 16
M  V30 63 1 15 22
M  V30 64 1 19 20
M  V30 65 1 28 31
M  V30 66 1 34 38
M  V30 67 1 47 48
M  V30 68 1 57 58
M  V30 69 1 4 63
M  V30 70 1 5 64
M  V30 71 1 6 65
M  V30 72 1 8 66
M  V30 73 1 8 67
M  V30 74 1 9 68
M  V30 75 1 9 69
M  V30 76 1 11 70
M  V30 77 1 13 71
M  V30 78 1 15 72
M  V30 79 1 16 73
M  V30 80 1 17 74
M  V30 81 1 17 75
M  V30 82 1 17 76
M  V30 83 1 18 77
M  V30 84 1 19 78
M  V30 85 1 19 79
M  V30 86 1 23 80
M  V30 87 1 23 81
M  V30 88 1 24 82
M  V30 89 1 24 83
M  V30 90 1 25 84
M  V30 91 1 26 85
M  V30 92 1 27 86
M  V30 93 1 28 87
M  V30 94 1 28 88
M  V30 95 1 29 89
M  V30 96 1 30 90
M  V30 97 1 31 91
M  V30 98 1 32 92
M  V30 99 1 34 93
M  V30 100 1 35 94
M  V30 101 1 35 95
M  V30 102 1 35 96
M  V30 103 1 36 97
M  V30 104 1 36 98
M  V30 105 1 37 99
M  V30 106 1 37 100
M  V30 107 1 37 101
M  V30 108 1 38 102
M  V30 109 1 39 103
M  V30 110 1 39 104
M  V30 111 1 39 105
M  V30 112 1 40 106
M  V30 113 1 40 107
M  V30 114 1 40 108
M  V30 115 1 41 109
M  V30 116 1 41 110
M  V30 117 1 41 111
M  V30 118 1 43 112
M  V30 119 1 45 113
M  V30 120 1 45 114
M  V30 121 1 46 115
M  V30 122 1 47 116
M  V30 123 1 48 117
M  V30 124 1 49 118
M  V30 125 1 49 119
M  V30 126 1 49 120
M  V30 127 1 52 121
M  V30 128 1 52 122
M  V30 129 1 52 123
M  V30 130 1 53 124
M  V30 131 1 55 125
M  V30 132 1 55 126
M  V30 133 1 56 127
M  V30 134 1 57 128
M  V30 135 1 58 129
M  V30 136 1 59 130
M  V30 137 1 59 131
M  V30 138 1 59 132
M  V30 139 1 61 133
M  V30 140 1 62 134
M  V30 141 1 62 135
M  V30 142 1 62 136
M  V30 END BOND
M  V30 END CTAB
M  END
>  <level_0>
130

>  <index>
130

>  <NO.>
131

>  <Name>
ivermectin

>  <SMILES>
CCC(C)C1OC2(CCC1C)CC1CC(CC=C(C)C(OC3CC(OC)C(OC4CC(OC)C(O)C(C)O4)C(C)O3)C(C)C=CC=C3COC4C(O)C(C)=CC(C(=O)O1)C34O)O2

>  <logBB>
-1.0

>  <Class>
1

>  <MW>
874.51

>  <nHBAcc>
14

>  <nHBDon>
3

>  <SLogP>
5.6

>  <TopoPSA>
170.06

>  <MMFF94 Energy>
214.66

$$$$
CCC(NC(=O)c1c(OCC(=O)O)c(-c2ccccc2)nc2ccccc12)c1ccccc1
Actelion Java MolfileCreator 2.0

  0  0  0  0  0  0              0 V3000
M  V30 BEGIN CTAB
M  V30 COUNTS 57 60 0 0 0
M  V30 BEGIN ATOM
M  V30 1 O -2.3147 0.0797 -1.7556 0
M  V30 2 C -1.4925 0.3037 -0.8766 0
M  V30 3 N -1.652 -0.0344 0.4462 0
M  V30 4 C -0.229 1.0022 -1.204 0
M  V30 5 C -2.8681 -0.6554 0.9488 0 CFG=2
M  V30 6 C 0.9885 0.3539 -0.9704 0
M  V30 7 C -0.2668 2.2993 -1.7667 0
M  V30 8 C -3.0398 -0.4157 2.4411 0
M  V30 9 C -2.9956 -2.1408 0.5503 0
M  V30 10 O 1.0081 -0.9102 -0.4418 0
M  V30 11 C 2.1685 1.0398 -1.2548 0
M  V30 12 C 0.9771 2.891 -2.0492 0
M  V30 13 C -1.449 3.0326 -2.0479 0
M  V30 14 C -2.0069 -0.6497 3.3643 0
M  V30 15 C -4.2739 0.0466 2.928 0
M  V30 16 C -1.9049 -3.0625 1.079 0
M  V30 17 C 1.0637 -1.897 -1.4797 0
M  V30 18 N 2.1481 2.2824 -1.8038 0
M  V30 19 C 3.5261 0.4967 -1.0253 0
M  V30 20 C 1.0071 4.1654 -2.5994 0
M  V30 21 C -1.3931 4.3108 -2.6003 0
M  V30 22 C -2.2009 -0.4219 4.7286 0
M  V30 23 C -4.4664 0.2747 4.2923 0
M  V30 24 C 1.5169 -3.2195 -0.8917 0
M  V30 25 C 4.546 0.7083 -1.9724 0
M  V30 26 C 3.8599 -0.2348 0.1286 0
M  V30 27 C -0.1597 4.8796 -2.8779 0
M  V30 28 C -3.4296 0.0414 5.1918 0
M  V30 29 O 1.8178 -3.4582 0.2667 0
M  V30 30 O 1.5679 -4.1993 -1.8199 0
M  V30 31 C 5.833 0.1952 -1.7871 0
M  V30 32 C 5.1456 -0.7523 0.3157 0
M  V30 33 C 6.1307 -0.5388 -0.6435 0
M  V30 34 H -0.9089 0.1775 1.0988 0
M  V30 35 H -3.6881 -0.1314 0.4378 0
M  V30 36 H -2.9935 -2.2168 -0.5439 0
M  V30 37 H -3.9674 -2.5261 0.8842 0
M  V30 38 H -2.4299 2.6057 -1.8435 0
M  V30 39 H -1.0405 -1.0235 3.0335 0
M  V30 40 H -5.0991 0.2353 2.2439 0
M  V30 41 H -0.908 -2.6748 0.8582 0
M  V30 42 H -1.9921 -3.2076 2.1594 0
M  V30 43 H -1.9929 -4.0492 0.6125 0
M  V30 44 H 1.7761 -1.6194 -2.2653 0
M  V30 45 H 0.0612 -2.034 -1.8991 0
M  V30 46 H 1.9716 4.6202 -2.8161 0
M  V30 47 H -2.3103 4.8542 -2.8132 0
M  V30 48 H -1.3925 -0.6103 5.4303 0
M  V30 49 H -5.4269 0.6345 4.6521 0
M  V30 50 H 4.3359 1.2843 -2.8728 0
M  V30 51 H 3.1195 -0.4089 0.9074 0
M  V30 52 H -0.0983 5.8754 -3.3089 0
M  V30 53 H -3.5799 0.2178 6.2536 0
M  V30 54 H 1.8729 -4.9846 -1.3177 0
M  V30 55 H 6.6 0.3743 -2.5358 0
M  V30 56 H 5.3741 -1.3187 1.2151 0
M  V30 57 H 7.1307 -0.9376 -0.4961 0
M  V30 END ATOM
M  V30 BEGIN BOND
M  V30 1 2 1 2
M  V30 2 1 2 3
M  V30 3 1 2 4
M  V30 4 1 3 5
M  V30 5 2 4 6
M  V30 6 1 4 7
M  V30 7 1 5 8
M  V30 8 1 5 9
M  V30 9 1 6 10
M  V30 10 1 6 11
M  V30 11 1 7 12
M  V30 12 2 7 13
M  V30 13 2 8 14
M  V30 14 1 8 15
M  V30 15 1 9 16
M  V30 16 1 10 17
M  V30 17 2 11 18
M  V30 18 1 11 19
M  V30 19 2 12 20
M  V30 20 1 13 21
M  V30 21 1 14 22
M  V30 22 2 15 23
M  V30 23 1 17 24
M  V30 24 2 19 25
M  V30 25 1 19 26
M  V30 26 1 20 27
M  V30 27 2 22 28
M  V30 28 2 24 29
M  V30 29 1 24 30
M  V30 30 1 25 31
M  V30 31 2 26 32
M  V30 32 2 31 33
M  V30 33 1 12 18
M  V30 34 2 21 27
M  V30 35 1 23 28
M  V30 36 1 32 33
M  V30 37 1 3 34
M  V30 38 1 5 35
M  V30 39 1 9 36
M  V30 40 1 9 37
M  V30 41 1 13 38
M  V30 42 1 14 39
M  V30 43 1 15 40
M  V30 44 1 16 41
M  V30 45 1 16 42
M  V30 46 1 16 43
M  V30 47 1 17 44
M  V30 48 1 17 45
M  V30 49 1 20 46
M  V30 50 1 21 47
M  V30 51 1 22 48
M  V30 52 1 23 49
M  V30 53 1 25 50
M  V30 54 1 26 51
M  V30 55 1 27 52
M  V30 56 1 28 53
M  V30 57 1 30 54
M  V30 58 1 31 55
M  V30 59 1 32 56
M  V30 60 1 33 57
M  V30 END BOND
M  V30 BEGIN COLLECTION
M  V30 MDLV30/STERAC1 ATOMS=(1 5)
M  V30 END COLLECTION
M  V30 END CTAB
M  END
>  <level_0>
131

>  <index>
131

>  <NO.>
132

>  <Name>
chembl68445

>  <SMILES>
CCC(NC(=O)c1c(OCC(=O)O)c(-c2ccccc2)nc2ccccc12)c1ccccc1

>  <logBB>
-1.0

>  <Class>
1

>  <MW>
440.17

>  <nHBAcc>
4

>  <nHBDon>
2

>  <SLogP>
5.25

>  <TopoPSA>
88.52

>  <MMFF94 Energy>
82.367

$$$$
Oc1cc(-c2nc(-c3ccccc3)[nH]c2-c2ccncc2)ccc1Cl
Actelion Java MolfileCreator 2.0

  0  0  0  0  0  0              0 V3000
M  V30 BEGIN CTAB
M  V30 COUNTS 39 42 0 0 0
M  V30 BEGIN ATOM
M  V30 1 Cl 3.5648 -3.646 4.1329 0
M  V30 2 C 2.6673 -2.6708 3.0283 0
M  V30 3 C 2.0468 -3.2226 1.9036 0
M  V30 4 C 2.5695 -1.3012 3.273 0
M  V30 5 O 2.1458 -4.5654 1.6583 0
M  V30 6 C 1.3244 -2.4106 1.0264 0
M  V30 7 C 1.8435 -0.4875 2.3991 0
M  V30 8 C 1.2027 -1.0369 1.28 0
M  V30 9 C 0.4572 -0.1627 0.3911 0
M  V30 10 N 0.9491 1.0681 0.0221 0
M  V30 11 C -0.7822 -0.3942 -0.1871 0
M  V30 12 C 0.0763 1.5891 -0.8186 0
M  V30 13 N -0.9743 0.7182 -0.9808 0
M  V30 14 C -1.7648 -1.4738 -0.1028 0
M  V30 15 C 0.1831 2.9005 -1.4694 0
M  V30 16 C -2.3774 -1.9708 -1.2563 0
M  V30 17 C -2.0308 -2.108 1.1124 0
M  V30 18 C 1.2291 3.761 -1.1009 0
M  V30 19 C -0.6788 3.3082 -2.4989 0
M  V30 20 C -3.2459 -3.0446 -1.1387 0
M  V30 21 C -2.9162 -3.1732 1.1298 0
M  V30 22 C 1.3909 5.0052 -1.7155 0
M  V30 23 C -0.5175 4.5543 -3.1148 0
M  V30 24 N -3.5311 -3.6535 0.0296 0
M  V30 25 C 0.5142 5.4027 -2.7206 0
M  V30 26 H 3.0572 -0.8593 4.1377 0
M  V30 27 H 1.6681 -4.7818 0.8411 0
M  V30 28 H 0.8623 -2.8381 0.1416 0
M  V30 29 H 1.7786 0.5824 2.5914 0
M  V30 30 H -1.7993 0.9017 -1.5296 0
M  V30 31 H -2.1753 -1.5564 -2.2376 0
M  V30 32 H -1.5763 -1.7759 2.0404 0
M  V30 33 H 1.9287 3.46 -0.3221 0
M  V30 34 H -1.4856 2.6723 -2.8486 0
M  V30 35 H -3.7428 -3.4616 -2.0102 0
M  V30 36 H -3.158 -3.6839 2.0579 0
M  V30 37 H 2.2045 5.6577 -1.4095 0
M  V30 38 H -1.1952 4.8607 -3.9079 0
M  V30 39 H 0.6402 6.3695 -3.201 0
M  V30 END ATOM
M  V30 BEGIN BOND
M  V30 1 1 1 2
M  V30 2 2 2 3
M  V30 3 1 2 4
M  V30 4 1 3 5
M  V30 5 1 3 6
M  V30 6 2 4 7
M  V30 7 2 6 8
M  V30 8 1 8 9
M  V30 9 1 9 10
M  V30 10 2 9 11
M  V30 11 2 10 12
M  V30 12 1 11 13
M  V30 13 1 11 14
M  V30 14 1 12 15
M  V30 15 2 14 16
M  V30 16 1 14 17
M  V30 17 2 15 18
M  V30 18 1 15 19
M  V30 19 1 16 20
M  V30 20 2 17 21
M  V30 21 1 18 22
M  V30 22 2 19 23
M  V30 23 2 20 24
M  V30 24 2 22 25
M  V30 25 1 7 8
M  V30 26 1 12 13
M  V30 27 1 21 24
M  V30 28 1 23 25
M  V30 29 1 4 26
M  V30 30 1 5 27
M  V30 31 1 6 28
M  V30 32 1 7 29
M  V30 33 1 13 30
M  V30 34 1 16 31
M  V30 35 1 17 32
M  V30 36 1 18 33
M  V30 37 1 19 34
M  V30 38 1 20 35
M  V30 39 1 21 36
M  V30 40 1 22 37
M  V30 41 1 23 38
M  V30 42 1 25 39
M  V30 END BOND
M  V30 END CTAB
M  END
>  <level_0>
146

>  <index>
146

>  <NO.>
147

>  <Name>
takle-2; l-779,450

>  <SMILES>
Oc1cc(-c2nc(-c3ccccc3)[nH]c2-c2ccncc2)ccc1Cl

>  <logBB>
-1.0

>  <Class>
1

>  <MW>
347.08

>  <nHBAcc>
3

>  <nHBDon>
2

>  <SLogP>
5.16

>  <TopoPSA>
61.8

>  <MMFF94 Energy>
65.671

$$$$
CCS(=O)(=O)c1ccc(-c2ccc3cc(O)ccc3c2Oc2ccc(OCCN3CCCCC3)cc2)cc1
Actelion Java MolfileCreator 2.0

  0  0  0  0  0  0              0 V3000
M  V30 BEGIN CTAB
M  V30 COUNTS 71 75 0 0 0
M  V30 BEGIN ATOM
M  V30 1 S 0.4025 1.4497 -3.3046 0
M  V30 2 O 1.6214 1.5694 -2.5245 0
M  V30 3 O 0.3543 0.5643 -4.4529 0
M  V30 4 C -0.8822 0.9565 -2.1808 0
M  V30 5 C -0.0701 3.083 -3.8335 0
M  V30 6 C -0.8722 1.4551 -0.8773 0
M  V30 7 C -1.852 0.0377 -2.5872 0
M  V30 8 C -1.3865 3.1196 -4.5821 0
M  V30 9 C -1.8493 1.0312 0.0249 0
M  V30 10 C -2.8232 -0.3846 -1.6755 0
M  V30 11 C -2.8261 0.0926 -0.3541 0
M  V30 12 C -3.791 -0.4162 0.6343 0
M  V30 13 C -3.7465 -1.7345 1.1496 0
M  V30 14 C -4.8027 0.4359 1.099 0
M  V30 15 O -2.7905 -2.6462 0.7219 0
M  V30 16 C -4.7147 -2.2076 2.0734 0
M  V30 17 C -5.7507 -0.006 2.025 0
M  V30 18 C -1.4725 -2.3469 0.9899 0
M  V30 19 C -5.7237 -1.3188 2.5156 0
M  V30 20 C -4.7158 -3.5253 2.5826 0
M  V30 21 C -0.5557 -2.6347 -0.0217 0
M  V30 22 C -1.034 -1.7921 2.1926 0
M  V30 23 C -6.6893 -1.7573 3.4386 0
M  V30 24 C -5.68 -3.949 3.498 0
M  V30 25 C 0.7874 -2.2841 0.1278 0
M  V30 26 C 0.3117 -1.4488 2.3413 0
M  V30 27 C -6.6581 -3.0628 3.9188 0
M  V30 28 C 1.2186 -1.6599 1.299 0
M  V30 29 O -7.5817 -3.5151 4.814 0
M  V30 30 O 2.4934 -1.2247 1.5399 0
M  V30 31 C 3.3103 -1.0155 0.3787 0
M  V30 32 C 4.538 -0.1899 0.7976 0
M  V30 33 N 5.5584 -0.0308 -0.2554 0
M  V30 34 C 6.7865 0.5864 0.2718 0
M  V30 35 C 5.0855 0.7067 -1.4388 0
M  V30 36 C 6.6526 2.0812 0.5779 0
M  V30 37 C 4.8708 2.202 -1.1939 0
M  V30 38 C 6.1299 2.8525 -0.6297 0
M  V30 39 H 0.7374 3.4437 -4.479 0
M  V30 40 H -0.1057 3.7242 -2.9473 0
M  V30 41 H -0.0968 2.1412 -0.5443 0
M  V30 42 H -1.8498 -0.3713 -3.5951 0
M  V30 43 H -1.5955 4.1371 -4.9273 0
M  V30 44 H -1.3652 2.4626 -5.4571 0
M  V30 45 H -2.219 2.8055 -3.9457 0
M  V30 46 H -1.8162 1.396 1.0504 0
M  V30 47 H -3.563 -1.1197 -1.9884 0
M  V30 48 H -4.866 1.4581 0.7294 0
M  V30 49 H -6.5206 0.6896 2.3538 0
M  V30 50 H -3.9555 -4.2371 2.2661 0
M  V30 51 H -0.8939 -3.095 -0.946 0
M  V30 52 H -1.726 -1.6039 3.0077 0
M  V30 53 H -7.4625 -1.073 3.7761 0
M  V30 54 H -5.6637 -4.9664 3.8783 0
M  V30 55 H 1.4687 -2.5011 -0.6884 0
M  V30 56 H 0.6524 -0.9921 3.267 0
M  V30 57 H -8.2031 -2.7963 5.0145 0
M  V30 58 H 2.7415 -0.4691 -0.3821 0
M  V30 59 H 3.6347 -1.9861 -0.0143 0
M  V30 60 H 4.1955 0.7751 1.1906 0
M  V30 61 H 4.9916 -0.706 1.6549 0
M  V30 62 H 7.5864 0.4464 -0.4671 0
M  V30 63 H 7.1255 0.0538 1.1689 0
M  V30 64 H 4.1742 0.2586 -1.8471 0
M  V30 65 H 5.8335 0.5862 -2.234 0
M  V30 66 H 7.6285 2.4833 0.8735 0
M  V30 67 H 5.9802 2.2337 1.4305 0
M  V30 68 H 4.0323 2.3575 -0.5049 0
M  V30 69 H 4.5984 2.6923 -2.1356 0
M  V30 70 H 5.9244 3.8923 -0.3522 0
M  V30 71 H 6.9042 2.8757 -1.4065 0
M  V30 END ATOM
M  V30 BEGIN BOND
M  V30 1 2 1 2
M  V30 2 2 1 3
M  V30 3 1 1 4
M  V30 4 1 1 5
M  V30 5 2 4 6
M  V30 6 1 4 7
M  V30 7 1 5 8
M  V30 8 1 6 9
M  V30 9 2 7 10
M  V30 10 2 9 11
M  V30 11 1 11 12
M  V30 12 2 12 13
M  V30 13 1 12 14
M  V30 14 1 13 15
M  V30 15 1 13 16
M  V30 16 2 14 17
M  V30 17 1 15 18
M  V30 18 1 16 19
M  V30 19 2 16 20
M  V30 20 2 18 21
M  V30 21 1 18 22
M  V30 22 2 19 23
M  V30 23 1 20 24
M  V30 24 1 21 25
M  V30 25 2 22 26
M  V30 26 1 23 27
M  V30 27 2 25 28
M  V30 28 1 27 29
M  V30 29 1 28 30
M  V30 30 1 30 31
M  V30 31 1 31 32
M  V30 32 1 32 33
M  V30 33 1 33 34
M  V30 34 1 33 35
M  V30 35 1 34 36
M  V30 36 1 35 37
M  V30 37 1 36 38
M  V30 38 1 10 11
M  V30 39 1 17 19
M  V30 40 2 24 27
M  V30 41 1 26 28
M  V30 42 1 37 38
M  V30 43 1 5 39
M  V30 44 1 5 40
M  V30 45 1 6 41
M  V30 46 1 7 42
M  V30 47 1 8 43
M  V30 48 1 8 44
M  V30 49 1 8 45
M  V30 50 1 9 46
M  V30 51 1 10 47
M  V30 52 1 14 48
M  V30 53 1 17 49
M  V30 54 1 20 50
M  V30 55 1 21 51
M  V30 56 1 22 52
M  V30 57 1 23 53
M  V30 58 1 24 54
M  V30 59 1 25 55
M  V30 60 1 26 56
M  V30 61 1 29 57
M  V30 62 1 31 58
M  V30 63 1 31 59
M  V30 64 1 32 60
M  V30 65 1 32 61
M  V30 66 1 34 62
M  V30 67 1 34 63
M  V30 68 1 35 64
M  V30 69 1 35 65
M  V30 70 1 36 66
M  V30 71 1 36 67
M  V30 72 1 37 68
M  V30 73 1 37 69
M  V30 74 1 38 70
M  V30 75 1 38 71
M  V30 END BOND
M  V30 END CTAB
M  END
>  <level_0>
153

>  <index>
153

>  <NO.>
154

>  <Name>
chembl243790

>  <SMILES>
CCS(=O)(=O)c1ccc(-c2ccc3cc(O)ccc3c2Oc2ccc(OCCN3CCCCC3)cc2)cc1

>  <logBB>
-0.92

>  <Class>
1

>  <MW>
531.21

>  <nHBAcc>
6

>  <nHBDon>
1

>  <SLogP>
6.66

>  <TopoPSA>
76.07

>  <MMFF94 Energy>
123.91

$$$$
COc1ccc(C(C)(C)O)cc1CNC1C2CCN(CC2)C1C(c1ccccc1)c1ccccc1
Actelion Java MolfileCreator 2.0

  0  0  0  0  0  0              0 V3000
M  V30 BEGIN CTAB
M  V30 COUNTS 73 77 0 0 0
M  V30 BEGIN ATOM
M  V30 1 O -1.436 2.554 -2.8737 0
M  V30 2 C -0.0709 2.4786 -2.7794 0
M  V30 3 C -2.0009 3.8115 -3.2219 0
M  V30 4 C 0.4558 1.2239 -2.4324 0
M  V30 5 C 0.802 3.547 -2.9948 0
M  V30 6 C 1.8476 1.0796 -2.2776 0
M  V30 7 C -0.4398 0.0304 -2.177 0
M  V30 8 C 2.1867 3.3833 -2.8525 0
M  V30 9 C 2.7376 2.1505 -2.4826 0
M  V30 10 N -0.8274 -0.023 -0.7689 0
M  V30 11 C 4.2373 1.9278 -2.2931 0
M  V30 12 C -1.7553 -1.1229 -0.4664 0
M  V30 13 O 4.4506 1.3162 -1.0127 0
M  V30 14 C 5.0863 3.2064 -2.2879 0
M  V30 15 C 4.7835 0.9696 -3.3586 0
M  V30 16 C -1.8599 -1.4975 1.0768 0
M  V30 17 C -3.2021 -0.8184 -0.9696 0
M  V30 18 N -3.2121 -1.0987 1.6124 0
M  V30 19 C -0.6301 -1.0513 1.9634 0
M  V30 20 C -4.1117 -1.9833 -0.5327 0
M  V30 21 C -3.7406 0.4432 -0.2678 0
M  V30 22 C -4.2333 -1.9778 0.9993 0
M  V30 23 C -3.5078 0.3017 1.2442 0
M  V30 24 C -0.8026 -1.1971 3.4847 0
M  V30 25 C 0.6722 -1.7401 1.526 0
M  V30 26 C -0.1389 -0.2924 4.3341 0
M  V30 27 C -1.5549 -2.2251 4.0732 0
M  V30 28 C 1.7568 -0.9703 1.0751 0
M  V30 29 C 0.8251 -3.1355 1.5854 0
M  V30 30 C -0.2408 -0.4016 5.7225 0
M  V30 31 C -1.6582 -2.3326 5.4627 0
M  V30 32 C 2.9509 -1.5775 0.6808 0
M  V30 33 C 2.02 -3.7413 1.1913 0
M  V30 34 C -1.0026 -1.421 6.2866 0
M  V30 35 C 3.0813 -2.9626 0.7371 0
M  V30 36 H -1.7705 4.5706 -2.467 0
M  V30 37 H -3.0883 3.6918 -3.2508 0
M  V30 38 H -1.6747 4.1289 -4.2177 0
M  V30 39 H 0.4405 4.5317 -3.2734 0
M  V30 40 H 2.2405 0.1062 -1.981 0
M  V30 41 H 0.1002 -0.8846 -2.4514 0
M  V30 42 H -1.3085 0.0803 -2.8423 0
M  V30 43 H 2.8165 4.2505 -3.0345 0
M  V30 44 H -1.2275 0.8759 -0.5107 0
M  V30 45 H -1.3932 -2.0285 -0.9734 0
M  V30 46 H 3.7631 1.6591 -0.4148 0
M  V30 47 H 6.1331 2.9764 -2.0553 0
M  V30 48 H 5.0614 3.7225 -3.2535 0
M  V30 49 H 4.7491 3.9019 -1.5099 0
M  V30 50 H 4.3014 -0.0132 -3.3046 0
M  V30 51 H 5.8542 0.7879 -3.208 0
M  V30 52 H 4.6382 1.3661 -4.3695 0
M  V30 53 H -1.8503 -2.5972 1.1137 0
M  V30 54 H -3.2422 -0.7077 -2.0576 0
M  V30 55 H -0.5178 0.0297 1.7989 0
M  V30 56 H -5.1064 -1.8802 -0.9822 0
M  V30 57 H -3.6949 -2.9362 -0.8802 0
M  V30 58 H -4.8134 0.5507 -0.4735 0
M  V30 59 H -3.2617 1.3529 -0.6451 0
M  V30 60 H -4.1322 -2.9993 1.3859 0
M  V30 61 H -5.236 -1.6484 1.301 0
M  V30 62 H -4.3985 0.6444 1.7854 0
M  V30 63 H -2.6964 0.9623 1.5718 0
M  V30 64 H 0.4711 0.5032 3.9122 0
M  V30 65 H -2.0778 -2.9513 3.4574 0
M  V30 66 H 1.6699 0.112 1.0161 0
M  V30 67 H 0.0185 -3.7642 1.9539 0
M  V30 68 H 0.2787 0.307 6.3614 0
M  V30 69 H -2.2525 -3.1303 5.8997 0
M  V30 70 H 3.7802 -0.9693 0.3282 0
M  V30 71 H 2.1238 -4.8214 1.247 0
M  V30 72 H -1.083 -1.5074 7.3665 0
M  V30 73 H 4.012 -3.4329 0.4324 0
M  V30 END ATOM
M  V30 BEGIN BOND
M  V30 1 1 1 2
M  V30 2 1 1 3
M  V30 3 2 2 4
M  V30 4 1 2 5
M  V30 5 1 4 6
M  V30 6 1 4 7
M  V30 7 2 5 8
M  V30 8 2 6 9
M  V30 9 1 7 10
M  V30 10 1 9 11
M  V30 11 1 10 12
M  V30 12 1 11 13
M  V30 13 1 11 14
M  V30 14 1 11 15
M  V30 15 1 12 16
M  V30 16 1 12 17
M  V30 17 1 16 18
M  V30 18 1 16 19
M  V30 19 1 17 20
M  V30 20 1 17 21
M  V30 21 1 18 22
M  V30 22 1 18 23
M  V30 23 1 19 24
M  V30 24 1 19 25
M  V30 25 2 24 26
M  V30 26 1 24 27
M  V30 27 2 25 28
M  V30 28 1 25 29
M  V30 29 1 26 30
M  V30 30 2 27 31
M  V30 31 1 28 32
M  V30 32 2 29 33
M  V30 33 2 30 34
M  V30 34 2 32 35
M  V30 35 1 8 9
M  V30 36 1 20 22
M  V30 37 1 21 23
M  V30 38 1 31 34
M  V30 39 1 33 35
M  V30 40 1 3 36
M  V30 41 1 3 37
M  V30 42 1 3 38
M  V30 43 1 5 39
M  V30 44 1 6 40
M  V30 45 1 7 41
M  V30 46 1 7 42
M  V30 47 1 8 43
M  V30 48 1 10 44
M  V30 49 1 12 45
M  V30 50 1 13 46
M  V30 51 1 14 47
M  V30 52 1 14 48
M  V30 53 1 14 49
M  V30 54 1 15 50
M  V30 55 1 15 51
M  V30 56 1 15 52
M  V30 57 1 16 53
M  V30 58 1 17 54
M  V30 59 1 19 55
M  V30 60 1 20 56
M  V30 61 1 20 57
M  V30 62 1 21 58
M  V30 63 1 21 59
M  V30 64 1 22 60
M  V30 65 1 22 61
M  V30 66 1 23 62
M  V30 67 1 23 63
M  V30 68 1 26 64
M  V30 69 1 27 65
M  V30 70 1 28 66
M  V30 71 1 29 67
M  V30 72 1 30 68
M  V30 73 1 31 69
M  V30 74 1 32 70
M  V30 75 1 33 71
M  V30 76 1 34 72
M  V30 77 1 35 73
M  V30 END BOND
M  V30 END CTAB
M  END
>  <level_0>
158

>  <index>
158

>  <NO.>
159

>  <Name>
161105-56-2

>  <SMILES>
COc1ccc(C(C)(C)O)cc1CNC1C2CCN(CC2)C1C(c1ccccc1)c1ccccc1

>  <logBB>
-0.89

>  <Class>
1

>  <MW>
470.29

>  <nHBAcc>
4

>  <nHBDon>
2

>  <SLogP>
5.31

>  <TopoPSA>
44.73

>  <MMFF94 Energy>
157.62

$$$$
Cc1cn([C@H]2C[C@H](F)[C@@H](CO)O2)c(=O)[nH]c1=O
Actelion Java MolfileCreator 2.0

  0  0  0  0  0  0              0 V3000
M  V30 BEGIN CTAB
M  V30 COUNTS 30 31 0 0 0
M  V30 BEGIN ATOM
M  V30 1 F -1.2745 -0.3185 -3.5877 0
M  V30 2 C -0.8457 -0.1002 -2.3262 0 CFG=2
M  V30 3 C -1.228 1.2802 -1.8422 0 CFG=2
M  V30 4 C 0.6559 -0.0329 -2.2743 0
M  V30 5 O -0.2734 1.6164 -0.8111 0
M  V30 6 C -2.6419 1.3507 -1.2812 0
M  V30 7 C 0.9062 0.812 -1.0287 0 CFG=1
M  V30 8 O -2.9131 2.6729 -0.8179 0
M  V30 9 N 1.2113 0.0061 0.1537 0
M  V30 10 C 2.4994 -0.5123 0.2312 0
M  V30 11 C 0.2776 -0.2384 1.143 0
M  V30 12 O 3.3591 -0.3388 -0.6298 0
M  V30 13 N 2.7735 -1.2644 1.3402 0
M  V30 14 C 0.5485 -0.9801 2.2243 0
M  V30 15 C 1.9067 -1.556 2.3523 0
M  V30 16 C -0.426 -1.2632 3.3199 0
M  V30 17 O 2.2293 -2.2542 3.3067 0
M  V30 18 H -1.2276 -0.8939 -1.6749 0
M  V30 19 H -1.1148 2.0254 -2.6396 0
M  V30 20 H 1.0267 0.4882 -3.1657 0
M  V30 21 H 1.1252 -1.0208 -2.2592 0
M  V30 22 H -3.3851 1.0928 -2.0412 0
M  V30 23 H -2.7635 0.6783 -0.426 0
M  V30 24 H 1.7467 1.495 -1.2009 0
M  V30 25 H -2.1247 2.9562 -0.316 0
M  V30 26 H -0.704 0.2083 1.0221 0
M  V30 27 H 3.7033 -1.6471 1.4107 0
M  V30 28 H -0.05 -0.8847 4.276 0
M  V30 29 H -0.5957 -2.3407 3.4138 0
M  V30 30 H -1.3957 -0.7894 3.1333 0
M  V30 END ATOM
M  V30 BEGIN BOND
M  V30 1 1 1 2
M  V30 2 1 2 3
M  V30 3 1 2 4
M  V30 4 1 3 5
M  V30 5 1 3 6
M  V30 6 1 4 7
M  V30 7 1 6 8
M  V30 8 1 7 9
M  V30 9 1 9 10
M  V30 10 1 9 11
M  V30 11 2 10 12
M  V30 12 1 10 13
M  V30 13 2 11 14
M  V30 14 1 13 15
M  V30 15 1 14 16
M  V30 16 2 15 17
M  V30 17 1 5 7
M  V30 18 1 14 15
M  V30 19 1 2 18
M  V30 20 1 3 19
M  V30 21 1 4 20
M  V30 22 1 4 21
M  V30 23 1 6 22
M  V30 24 1 6 23
M  V30 25 1 7 24
M  V30 26 1 8 25
M  V30 27 1 11 26
M  V30 28 1 13 27
M  V30 29 1 16 28
M  V30 30 1 16 29
M  V30 31 1 16 30
M  V30 END BOND
M  V30 BEGIN COLLECTION
M  V30 MDLV30/STEABS ATOMS=(3 2 3 7)
M  V30 END COLLECTION
M  V30 END CTAB
M  END
>  <level_0>
165

>  <index>
165

>  <NO.>
166

>  <Name>
alovudine

>  <SMILES>
Cc1cn([C@H]2C[C@H](F)[C@@H](CO)O2)c(=O)[nH]c1=O

>  <logBB>
-0.85

>  <Class>
1

>  <MW>
244.09

>  <nHBAcc>
4

>  <nHBDon>
2

>  <SLogP>
-0.54

>  <TopoPSA>
84.32

>  <MMFF94 Energy>
-75.514

$$$$
COc1cccc2c1C(=O)c1c(O)c3c(c(O)c1C2=O)CC(O)(C(=O)CO)CC3OC1CC(N)C(O)C(C)O1
Actelion Java MolfileCreator 2.0

  0  0  0  0  0  0              0 V3000
M  V30 BEGIN CTAB
M  V30 COUNTS 68 72 0 0 0
M  V30 BEGIN ATOM
M  V30 1 O -0.7253 -1.4511 3.3076 0
M  V30 2 C 0.282 -1.9576 2.8322 0
M  V30 3 C 0.9995 -1.3291 1.6891 0
M  V30 4 C 0.8762 -3.1538 3.4738 0
M  V30 5 C 0.3504 -0.4941 0.7601 0
M  V30 6 C 2.3698 -1.5442 1.5674 0
M  V30 7 C 0.127 -4.0405 4.2604 0
M  V30 8 C 2.2453 -3.3751 3.3322 0
M  V30 9 O -1.0053 -0.3435 0.8752 0
M  V30 10 C 1.0625 0.1548 -0.2778 0
M  V30 11 C 3.0489 -2.4877 2.4759 0
M  V30 12 C 3.0961 -0.8747 0.572 0
M  V30 13 O -1.2359 -3.9445 4.3517 0
M  V30 14 C 0.7427 -5.1323 4.8834 0
M  V30 15 C 2.8696 -4.4511 3.9799 0
M  V30 16 C 2.4642 -0.0091 -0.3364 0
M  V30 17 C 0.3553 1.0753 -1.2656 0
M  V30 18 O 4.2749 -2.558 2.4732 0
M  V30 19 O 4.4545 -1.0296 0.4359 0
M  V30 20 C -1.6181 -3.3338 5.5855 0
M  V30 21 C 2.1158 -5.3289 4.7559 0
M  V30 22 C 3.3094 0.6871 -1.3856 0
M  V30 23 O -0.8046 0.3942 -1.7647 0
M  V30 24 C 1.208 1.4582 -2.4765 0
M  V30 25 C 2.6121 1.8768 -2.0571 0
M  V30 26 C -1.9095 1.2626 -2.0004 0
M  V30 27 O 2.4931 2.9889 -1.1655 0
M  V30 28 C 3.4322 2.2834 -3.2963 0
M  V30 29 O -2.445 1.6329 -0.7334 0
M  V30 30 C -2.948 0.4751 -2.7981 0
M  V30 31 O 3.1833 1.8593 -4.4294 0
M  V30 32 C 4.6052 3.2321 -3.0767 0
M  V30 33 C -3.5773 2.5064 -0.8487 0
M  V30 34 C -4.2047 1.3172 -2.978 0
M  V30 35 O 5.4685 3.269 -4.2033 0
M  V30 36 C -4.7179 1.8138 -1.611 0
M  V30 37 C -4.0029 2.8953 0.5624 0
M  V30 38 N -5.2743 0.587 -3.6822 0
M  V30 39 O -5.8124 2.7046 -1.827 0
M  V30 40 H -1.3661 0.1991 0.1489 0
M  V30 41 H 0.1462 -5.8362 5.4592 0
M  V30 42 H 3.9401 -4.6162 3.8699 0
M  V30 43 H 0.0715 1.979 -0.7089 0
M  V30 44 H 4.775 -1.6293 1.1493 0
M  V30 45 H -1.5166 -4.0467 6.4104 0
M  V30 46 H -2.6723 -3.0518 5.5079 0
M  V30 47 H -1.0372 -2.4292 5.7977 0
M  V30 48 H 2.5938 -6.174 5.2459 0
M  V30 49 H 4.2337 1.0458 -0.915 0
M  V30 50 H 3.5896 -0.0615 -2.1385 0
M  V30 51 H 1.2479 0.6187 -3.1851 0
M  V30 52 H 0.7114 2.2746 -3.0171 0
M  V30 53 H -1.5873 2.1527 -2.5549 0
M  V30 54 H 3.201 2.9456 -0.4965 0
M  V30 55 H -3.1908 -0.4535 -2.2637 0
M  V30 56 H -2.5291 0.1747 -3.7661 0
M  V30 57 H 4.2195 4.2396 -2.9002 0
M  V30 58 H 5.192 2.9039 -2.2156 0
M  V30 59 H -3.2711 3.4229 -1.37 0
M  V30 60 H -3.9684 2.1906 -3.5998 0
M  V30 61 H 4.9126 3.0659 -4.9826 0
M  V30 62 H -5.0853 0.96 -1.0264 0
M  V30 63 H -3.1683 3.3642 1.0951 0
M  V30 64 H -4.2869 2.0107 1.1431 0
M  V30 65 H -4.8443 3.5944 0.5522 0
M  V30 66 H -4.9295 0.2754 -4.5918 0
M  V30 67 H -5.4976 -0.2704 -3.1722 0
M  V30 68 H -6.3436 2.2784 -2.5313 0
M  V30 END ATOM
M  V30 BEGIN BOND
M  V30 1 2 1 2
M  V30 2 1 2 3
M  V30 3 1 2 4
M  V30 4 2 3 5
M  V30 5 1 3 6
M  V30 6 2 4 7
M  V30 7 1 4 8
M  V30 8 1 5 9
M  V30 9 1 5 10
M  V30 10 1 6 11
M  V30 11 2 6 12
M  V30 12 1 7 13
M  V30 13 1 7 14
M  V30 14 2 8 15
M  V30 15 2 10 16
M  V30 16 1 10 17
M  V30 17 2 11 18
M  V30 18 1 12 19
M  V30 19 1 13 20
M  V30 20 2 14 21
M  V30 21 1 16 22
M  V30 22 1 17 23
M  V30 23 1 17 24
M  V30 24 1 22 25
M  V30 25 1 23 26
M  V30 26 1 25 27
M  V30 27 1 25 28
M  V30 28 1 26 29
M  V30 29 1 26 30
M  V30 30 2 28 31
M  V30 31 1 28 32
M  V30 32 1 29 33
M  V30 33 1 30 34
M  V30 34 1 32 35
M  V30 35 1 33 36
M  V30 36 1 33 37
M  V30 37 1 34 38
M  V30 38 1 36 39
M  V30 39 1 8 11
M  V30 40 1 12 16
M  V30 41 1 15 21
M  V30 42 1 24 25
M  V30 43 1 34 36
M  V30 44 1 9 40
M  V30 45 1 14 41
M  V30 46 1 15 42
M  V30 47 1 17 43
M  V30 48 1 19 44
M  V30 49 1 20 45
M  V30 50 1 20 46
M  V30 51 1 20 47
M  V30 52 1 21 48
M  V30 53 1 22 49
M  V30 54 1 22 50
M  V30 55 1 24 51
M  V30 56 1 24 52
M  V30 57 1 26 53
M  V30 58 1 27 54
M  V30 59 1 30 55
M  V30 60 1 30 56
M  V30 61 1 32 57
M  V30 62 1 32 58
M  V30 63 1 33 59
M  V30 64 1 34 60
M  V30 65 1 35 61
M  V30 66 1 36 62
M  V30 67 1 37 63
M  V30 68 1 37 64
M  V30 69 1 37 65
M  V30 70 1 38 66
M  V30 71 1 38 67
M  V30 72 1 39 68
M  V30 END BOND
M  V30 END CTAB
M  END
>  <level_0>
167

>  <index>
167

>  <NO.>
168

>  <Name>
nsc169534

>  <SMILES>
COc1cccc2c1C(=O)c1c(O)c3c(c(O)c1C2=O)CC(O)(C(=O)CO)CC3OC1CC(N)C(O)C(C)O1

>  <logBB>
-0.83

>  <Class>
1

>  <MW>
543.17

>  <nHBAcc>
12

>  <nHBDon>
6

>  <SLogP>
0.0

>  <TopoPSA>
206.07

>  <MMFF94 Energy>
149.8

$$$$
CS(=O)(=O)c1ccc(-c2ccc3cc(O)ccc3c2Oc2ccc(OCCN3CCCCC3)cc2)cc1
Actelion Java MolfileCreator 2.0

  0  0  0  0  0  0              0 V3000
M  V30 BEGIN CTAB
M  V30 COUNTS 68 72 0 0 0
M  V30 BEGIN ATOM
M  V30 1 S 1.5325 4.0367 -2.7436 0
M  V30 2 O 2.9747 3.9354 -2.8637 0
M  V30 3 O 0.6625 3.2002 -3.5487 0
M  V30 4 C 1.1128 3.7641 -1.0395 0
M  V30 5 C 1.0758 5.7299 -3.008 0
M  V30 6 C 2.0915 3.9074 -0.0543 0
M  V30 7 C -0.1805 3.3573 -0.7084 0
M  V30 8 C 1.7666 3.6446 1.2784 0
M  V30 9 C -0.4975 3.1023 0.6272 0
M  V30 10 C 0.4729 3.2292 1.6361 0
M  V30 11 C 0.1515 2.8862 3.0298 0
M  V30 12 C 0.6458 1.7227 3.664 0
M  V30 13 C -0.6711 3.7413 3.7752 0
M  V30 14 O 1.4736 0.843 2.9814 0
M  V30 15 C 0.3729 1.4404 5.027 0
M  V30 16 C -0.9734 3.4662 5.1112 0
M  V30 17 C 0.9 0.1268 1.9521 0
M  V30 18 C -0.4571 2.3298 5.7502 0
M  V30 19 C 0.8829 0.3065 5.6971 0
M  V30 20 C 1.6774 -0.0429 0.8059 0
M  V30 21 C -0.3754 -0.4333 2.0171 0
M  V30 22 C -0.7552 2.0691 7.0991 0
M  V30 23 C 0.5805 0.0592 7.0366 0
M  V30 24 C 1.1595 -0.7172 -0.3036 0
M  V30 25 C -0.886 -1.1138 0.9092 0
M  V30 26 C -0.2356 0.941 7.7264 0
M  V30 27 C -0.1314 -1.2442 -0.2603 0
M  V30 28 O -0.5078 0.6635 9.0333 0
M  V30 29 O -0.7642 -1.905 -1.2759 0
M  V30 30 C -0.1025 -1.9354 -2.5424 0
M  V30 31 C -1.02 -2.5939 -3.5927 0
M  V30 32 N -1.3894 -4.0001 -3.3292 0
M  V30 33 C -0.2571 -4.9349 -3.3277 0
M  V30 34 C -2.4429 -4.4676 -4.2433 0
M  V30 35 C 0.3236 -5.2045 -4.7177 0
M  V30 36 C -1.9546 -4.727 -5.6711 0
M  V30 37 C -0.7585 -5.6733 -5.6853 0
M  V30 38 H 1.6523 6.3645 -2.3322 0
M  V30 39 H 0.005 5.8435 -2.8285 0
M  V30 40 H 1.307 5.9852 -4.0443 0
M  V30 41 H 3.1077 4.1987 -0.3106 0
M  V30 42 H -0.9368 3.2094 -1.4759 0
M  V30 43 H 2.5372 3.7365 2.0422 0
M  V30 44 H -1.499 2.7553 0.8771 0
M  V30 45 H -1.0752 4.6431 3.3187 0
M  V30 46 H -1.613 4.1603 5.6533 0
M  V30 47 H 1.5245 -0.3988 5.1723 0
M  V30 48 H 2.6783 0.3779 0.763 0
M  V30 49 H -0.9832 -0.346 2.9123 0
M  V30 50 H -1.3928 2.7528 7.6521 0
M  V30 51 H 0.9815 -0.8185 7.5349 0
M  V30 52 H 1.7875 -0.8069 -1.183 0
M  V30 53 H -1.8847 -1.5416 0.9526 0
M  V30 54 H -1.086 1.3585 9.3878 0
M  V30 55 H 0.8483 -2.473 -2.4677 0
M  V30 56 H 0.0972 -0.9083 -2.874 0
M  V30 57 H -1.945 -2.0025 -3.6112 0
M  V30 58 H -0.5511 -2.4861 -4.577 0
M  V30 59 H -0.6023 -5.8867 -2.9018 0
M  V30 60 H 0.5355 -4.6001 -2.6513 0
M  V30 61 H -3.2782 -3.7567 -4.2604 0
M  V30 62 H -2.8632 -5.3974 -3.8378 0
M  V30 63 H 1.1049 -5.9697 -4.6464 0
M  V30 64 H 0.804 -4.3003 -5.1094 0
M  V30 65 H -1.6814 -3.7815 -6.1543 0
M  V30 66 H -2.769 -5.1582 -6.2644 0
M  V30 67 H -0.3501 -5.7485 -6.699 0
M  V30 68 H -1.0897 -6.679 -5.3982 0
M  V30 END ATOM
M  V30 BEGIN BOND
M  V30 1 2 1 2
M  V30 2 2 1 3
M  V30 3 1 1 4
M  V30 4 1 1 5
M  V30 5 2 4 6
M  V30 6 1 4 7
M  V30 7 1 6 8
M  V30 8 2 7 9
M  V30 9 2 8 10
M  V30 10 1 10 11
M  V30 11 2 11 12
M  V30 12 1 11 13
M  V30 13 1 12 14
M  V30 14 1 12 15
M  V30 15 2 13 16
M  V30 16 1 14 17
M  V30 17 1 15 18
M  V30 18 2 15 19
M  V30 19 2 17 20
M  V30 20 1 17 21
M  V30 21 2 18 22
M  V30 22 1 19 23
M  V30 23 1 20 24
M  V30 24 2 21 25
M  V30 25 1 22 26
M  V30 26 2 24 27
M  V30 27 1 26 28
M  V30 28 1 27 29
M  V30 29 1 29 30
M  V30 30 1 30 31
M  V30 31 1 31 32
M  V30 32 1 32 33
M  V30 33 1 32 34
M  V30 34 1 33 35
M  V30 35 1 34 36
M  V30 36 1 35 37
M  V30 37 1 9 10
M  V30 38 1 16 18
M  V30 39 2 23 26
M  V30 40 1 25 27
M  V30 41 1 36 37
M  V30 42 1 5 38
M  V30 43 1 5 39
M  V30 44 1 5 40
M  V30 45 1 6 41
M  V30 46 1 7 42
M  V30 47 1 8 43
M  V30 48 1 9 44
M  V30 49 1 13 45
M  V30 50 1 16 46
M  V30 51 1 19 47
M  V30 52 1 20 48
M  V30 53 1 21 49
M  V30 54 1 22 50
M  V30 55 1 23 51
M  V30 56 1 24 52
M  V30 57 1 25 53
M  V30 58 1 28 54
M  V30 59 1 30 55
M  V30 60 1 30 56
M  V30 61 1 31 57
M  V30 62 1 31 58
M  V30 63 1 33 59
M  V30 64 1 33 60
M  V30 65 1 34 61
M  V30 66 1 34 62
M  V30 67 1 35 63
M  V30 68 1 35 64
M  V30 69 1 36 65
M  V30 70 1 36 66
M  V30 71 1 37 67
M  V30 72 1 37 68
M  V30 END BOND
M  V30 END CTAB
M  END
>  <level_0>
170

>  <index>
170

>  <NO.>
171

>  <Name>
ly2066948

>  <SMILES>
CS(=O)(=O)c1ccc(-c2ccc3cc(O)ccc3c2Oc2ccc(OCCN3CCCCC3)cc2)cc1

>  <logBB>
-0.81

>  <Class>
1

>  <MW>
517.19

>  <nHBAcc>
6

>  <nHBDon>
1

>  <SLogP>
6.27

>  <TopoPSA>
76.07

>  <MMFF94 Energy>
129.94

$$$$
Nc1nc(=O)c2ncn(COCCO)c2[nH]1
Actelion Java MolfileCreator 2.0

  0  0  0  0  0  0              0 V3000
M  V30 BEGIN CTAB
M  V30 COUNTS 27 28 0 0 0
M  V30 BEGIN ATOM
M  V30 1 O 1.6501 4.4837 -0.0785 0
M  V30 2 C 0.8623 3.5577 0.081 0
M  V30 3 N -0.2269 3.6432 0.9583 0
M  V30 4 C 0.9946 2.2805 -0.6322 0
M  V30 5 C -1.0365 2.6331 1.0974 0
M  V30 6 N 1.9341 1.8468 -1.5444 0
M  V30 7 C 0.0779 1.2897 -0.4077 0
M  V30 8 N -0.9426 1.4295 0.4478 0
M  V30 9 N -2.0831 2.7185 1.9442 0
M  V30 10 C 1.5683 0.6149 -1.8496 0
M  V30 11 N 0.4331 0.2306 -1.1762 0
M  V30 12 C -0.2454 -1.0415 -1.3274 0
M  V30 13 O -0.7371 -1.4898 -0.0603 0
M  V30 14 C 0.2488 -2.1858 0.7143 0
M  V30 15 C 0.2595 -3.6799 0.3891 0
M  V30 16 O 0.8657 -3.91 -0.8799 0
M  V30 17 H -1.5797 0.6733 0.6667 0
M  V30 18 H -2.786 2.0052 2.0445 0
M  V30 19 H -2.2037 3.5893 2.447 0
M  V30 20 H 2.0827 -0.0347 -2.5466 0
M  V30 21 H -1.1039 -0.8602 -1.9817 0
M  V30 22 H 0.4245 -1.7569 -1.8083 0
M  V30 23 H -0.0398 -2.0584 1.7627 0
M  V30 24 H 1.2391 -1.7371 0.578 0
M  V30 25 H 0.8385 -4.2228 1.1421 0
M  V30 26 H -0.76 -4.0757 0.3539 0
M  V30 27 H 0.8721 -4.8741 -1.0182 0
M  V30 END ATOM
M  V30 BEGIN BOND
M  V30 1 2 1 2
M  V30 2 1 2 3
M  V30 3 1 2 4
M  V30 4 2 3 5
M  V30 5 1 4 6
M  V30 6 2 4 7
M  V30 7 1 5 8
M  V30 8 1 5 9
M  V30 9 2 6 10
M  V30 10 1 7 11
M  V30 11 1 11 12
M  V30 12 1 12 13
M  V30 13 1 13 14
M  V30 14 1 14 15
M  V30 15 1 15 16
M  V30 16 1 7 8
M  V30 17 1 10 11
M  V30 18 1 8 17
M  V30 19 1 9 18
M  V30 20 1 9 19
M  V30 21 1 10 20
M  V30 22 1 12 21
M  V30 23 1 12 22
M  V30 24 1 14 23
M  V30 25 1 14 24
M  V30 26 1 15 25
M  V30 27 1 15 26
M  V30 28 1 16 27
M  V30 END BOND
M  V30 END CTAB
M  END
>  <level_0>
172

>  <index>
172

>  <NO.>
173

>  <Name>
aciclovir

>  <SMILES>
Nc1nc(=O)c2ncn(COCCO)c2[nH]1

>  <logBB>
-0.8

>  <Class>
1

>  <MW>
225.09

>  <nHBAcc>
6

>  <nHBDon>
3

>  <SLogP>
-1.33

>  <TopoPSA>
119.05

>  <MMFF94 Energy>
-0.72973

$$$$
Nc1ccn(C2CC(CO)C(CO)O2)c(=O)n1
Actelion Java MolfileCreator 2.0

  0  0  0  0  0  0              0 V3000
M  V30 BEGIN CTAB
M  V30 COUNTS 32 33 0 0 0
M  V30 BEGIN ATOM
M  V30 1 O -1.3418 -2.4479 1.4208 0
M  V30 2 C -0.5411 -2.4832 0.4875 0
M  V30 3 N 0.1404 -3.6402 0.1937 0
M  V30 4 N -0.302 -1.3479 -0.297 0
M  V30 5 C 0.9764 -3.6644 -0.7955 0
M  V30 6 C 0.5844 -1.3829 -1.3489 0
M  V30 7 C -1.0417 -0.1455 0.0596 0
M  V30 8 N 1.6184 -4.8397 -1.0341 0
M  V30 9 C 1.2506 -2.4952 -1.6518 0
M  V30 10 O -1.0119 0.8198 -1.0116 0
M  V30 11 C -0.5149 0.5503 1.3167 0
M  V30 12 C -0.7695 2.1194 -0.4495 0
M  V30 13 C 0.0359 1.8788 0.8222 0
M  V30 14 C -2.1116 2.8204 -0.1954 0
M  V30 15 C 1.5336 1.8032 0.5221 0
M  V30 16 O -1.898 4.1428 0.2792 0
M  V30 17 O 2.2466 1.5921 1.7341 0
M  V30 18 H 0.7194 -0.4776 -1.9312 0
M  V30 19 H -2.0921 -0.4264 0.2084 0
M  V30 20 H 1.4026 -5.62 -0.4256 0
M  V30 21 H 2.2847 -4.9742 -1.7792 0
M  V30 22 H 1.9502 -2.5671 -2.4705 0
M  V30 23 H -1.3594 0.7415 1.9912 0
M  V30 24 H 0.2063 -0.0468 1.8836 0
M  V30 25 H -0.2005 2.7132 -1.1741 0
M  V30 26 H -0.1177 2.6589 1.577 0
M  V30 27 H -2.7195 2.2736 0.5332 0
M  V30 28 H -2.6877 2.8693 -1.126 0
M  V30 29 H 1.8817 2.7456 0.086 0
M  V30 30 H 1.7785 0.9923 -0.1685 0
M  V30 31 H -2.7754 4.5388 0.4233 0
M  V30 32 H 3.1934 1.5708 1.5131 0
M  V30 END ATOM
M  V30 BEGIN BOND
M  V30 1 2 1 2
M  V30 2 1 2 3
M  V30 3 1 2 4
M  V30 4 2 3 5
M  V30 5 1 4 6
M  V30 6 1 4 7
M  V30 7 1 5 8
M  V30 8 1 5 9
M  V30 9 1 7 10
M  V30 10 1 7 11
M  V30 11 1 10 12
M  V30 12 1 11 13
M  V30 13 1 12 14
M  V30 14 1 13 15
M  V30 15 1 14 16
M  V30 16 1 15 17
M  V30 17 2 6 9
M  V30 18 1 12 13
M  V30 19 1 6 18
M  V30 20 1 7 19
M  V30 21 1 8 20
M  V30 22 1 8 21
M  V30 23 1 9 22
M  V30 24 1 11 23
M  V30 25 1 11 24
M  V30 26 1 12 25
M  V30 27 1 13 26
M  V30 28 1 14 27
M  V30 29 1 14 28
M  V30 30 1 15 29
M  V30 31 1 15 30
M  V30 32 1 16 31
M  V30 33 1 17 32
M  V30 END BOND
M  V30 END CTAB
M  END
>  <level_0>
182

>  <index>
182

>  <NO.>
183

>  <Name>
2',3'-dideoxy-3'-hydroxymethylcytidine

>  <SMILES>
Nc1ccn(C2CC(CO)C(CO)O2)c(=O)n1

>  <logBB>
-0.79

>  <Class>
1

>  <MW>
241.11

>  <nHBAcc>
6

>  <nHBDon>
3

>  <SLogP>
-1.29

>  <TopoPSA>
110.6

>  <MMFF94 Energy>
-66.266

$$$$
C/C=C/C(C)C(O)C1C(=O)NC(CC)C(=O)N(C)CC(=O)N(C)C(CC(C)C)C(=O)NC(C(C)C)C(=O)N(C)C(CC(C)C)C(=O)NC(C)C(=O)NC(C)C(=O)N(C)C(CC(C)C)C(=O)N(C)C(CC(C)C)C(=O)N(C)C(CC(C)C)C(=O)N1C
Actelion Java MolfileCreator 2.0

  0  0  0  0  0  0              0 V3000
M  V30 BEGIN CTAB
M  V30 COUNTS 196 196 0 0 0
M  V30 BEGIN ATOM
M  V30 1 O -0.3911 -0.4694 -5.3304 0
M  V30 2 C -0.6815 -1.4729 -4.6762 0
M  V30 3 N 0.165 -2.0025 -3.7068 0
M  V30 4 C -2.0219 -2.2093 -4.9592 0
M  V30 5 C 1.5349 -1.491 -3.488 0
M  V30 6 C -0.3312 -2.9192 -2.6811 0
M  V30 7 N -3.0268 -1.8307 -3.9645 0
M  V30 8 C -2.5367 -1.9025 -6.3997 0
M  V30 9 C 1.7492 -0.6784 -2.1911 0
M  V30 10 C 2.3569 -1.0215 -4.704 0
M  V30 11 C -3.8549 -2.7671 -3.3841 0
M  V30 12 C -1.5688 -2.4489 -7.4605 0
M  V30 13 C -3.9267 -2.4952 -6.6695 0
M  V30 14 O 2.0553 -1.2979 -1.1573 0
M  V30 15 N 1.6118 0.6451 -2.0083 0
M  V30 16 C 2.5897 -2.0985 -5.7903 0
M  V30 17 O -3.6673 -3.9753 -3.5325 0
M  V30 18 C -5.1671 -2.2207 -2.7679 0
M  V30 19 C 0.9436 1.7603 -2.6661 0
M  V30 20 C 3.1972 -1.4465 -7.0367 0
M  V30 21 C 3.5022 -3.2313 -5.3152 0
M  V30 22 N -5.166 -0.7815 -2.423 0
M  V30 23 C -5.6735 -3.1113 -1.607 0
M  V30 24 C -0.574 1.7635 -2.3469 0
M  V30 25 C 1.2482 2.0659 -4.1145 0
M  V30 26 C -4.5809 -0.368 -1.2298 0
M  V30 27 C -5.8604 0.1118 -3.3398 0
M  V30 28 C -6.4903 -4.3445 -2.0514 0
M  V30 29 O -1.322 0.818 -2.6058 0
M  V30 30 N -1.0968 2.8537 -1.6993 0
M  V30 31 O -3.8077 -1.0964 -0.6069 0
M  V30 32 C -5.005 1.0179 -0.7004 0
M  V30 33 C -6.6483 -5.3104 -0.8732 0
M  V30 34 C -7.8743 -3.9558 -2.5785 0
M  V30 35 C -0.39 4.0463 -1.2379 0
M  V30 36 N -4.7082 1.1718 0.726 0
M  V30 37 C 0.4115 3.6865 0.0388 0
M  V30 38 C -1.3627 5.1812 -0.9386 0
M  V30 39 C -3.5435 1.8415 1.0674 0
M  V30 40 C -5.522 0.4096 1.6577 0
M  V30 41 O 0.0136 2.7752 0.7686 0
M  V30 42 N 1.5703 4.4155 0.3139 0
M  V30 43 O -3.0059 2.5978 0.2495 0
M  V30 44 C -2.8663 1.5237 2.4234 0
M  V30 45 C 2.421 4.0268 1.4641 0
M  V30 46 C 2.1538 5.3906 -0.6003 0
M  V30 47 N -1.6492 0.8007 2.0758 0
M  V30 48 C -2.5301 2.8051 3.1917 0
M  V30 49 C 3.2325 2.7172 1.1618 0
M  V30 50 C 1.7244 3.9651 2.8404 0
M  V30 51 C -1.0987 -0.179 2.876 0
M  V30 52 C -3.7746 3.4998 3.7244 0
M  V30 53 O 2.7659 1.8291 0.443 0
M  V30 54 N 4.5175 2.6069 1.7251 0
M  V30 55 C 1.3824 5.334 3.4682 0
M  V30 56 O -1.5206 -0.4176 4.0075 0
M  V30 57 C 0.0467 -0.9687 2.2006 0
M  V30 58 C 5.2875 1.3396 1.5497 0
M  V30 59 C 5.2522 3.7742 2.1951 0
M  V30 60 C 0.326 6.1169 2.6902 0
M  V30 61 C 0.8973 5.1241 4.9074 0
M  V30 62 N 1.0975 -1.3721 3.1668 0
M  V30 63 C -0.4789 -2.045 1.1884 0
M  V30 64 C 4.6537 0.1126 2.289 0
M  V30 65 C 5.5718 1.0564 0.0553 0
M  V30 66 C 1.9661 -0.3681 3.5878 0
M  V30 67 C 1.1483 -2.7441 3.6365 0
M  V30 68 O 0.6432 -2.6978 0.5556 0
M  V30 69 C -1.4244 -3.1877 1.6737 0
M  V30 70 O 4.5389 -0.9757 1.7161 0
M  V30 71 N 4.3318 0.219 3.6511 0
M  V30 72 C 6.828 0.1969 -0.2047 0
M  V30 73 O 1.6671 0.8276 3.4883 0
M  V30 74 C 3.3489 -0.7806 4.1614 0
M  V30 75 C -2.6905 -2.7422 2.359 0
M  V30 76 C -1.8392 -4.0813 0.4878 0
M  V30 77 C 4.6783 1.361 4.4811 0
M  V30 78 C 6.8294 -0.2856 -1.6586 0
M  V30 79 C 8.1211 0.9657 0.0772 0
M  V30 80 C 3.2562 -0.9117 5.6964 0
M  V30 81 C -3.0709 -3.1688 3.574 0
M  V30 82 C 4.4728 -1.6063 6.3449 0
M  V30 83 C -4.3149 -2.7254 4.2687 0
M  V30 84 C 4.41 -1.4438 7.8661 0
M  V30 85 C 4.5472 -3.0936 5.9929 0
M  V30 86 H -1.8402 -3.2881 -4.9148 0
M  V30 87 H 2.0698 -2.4139 -3.2181 0
M  V30 88 H -0.9761 -3.6886 -3.1039 0
M  V30 89 H -0.8977 -2.3355 -1.9513 0
M  V30 90 H 0.4963 -3.4317 -2.1831 0
M  V30 91 H -3.0577 -0.868 -3.6379 0
M  V30 92 H -2.6143 -0.8154 -6.5339 0
M  V30 93 H 3.3318 -0.6566 -4.3522 0
M  V30 94 H 1.8876 -0.1668 -5.1836 0
M  V30 95 H -0.5763 -1.997 -7.3806 0
M  V30 96 H -1.9392 -2.2354 -8.4691 0
M  V30 97 H -1.4537 -3.5343 -7.3673 0
M  V30 98 H -4.2262 -2.3258 -7.7097 0
M  V30 99 H -3.9405 -3.5749 -6.4871 0
M  V30 100 H -4.6901 -2.028 -6.0401 0
M  V30 101 H 1.8879 0.8662 -1.0455 0
M  V30 102 H 1.6274 -2.5342 -6.0827 0
M  V30 103 H -5.8856 -2.308 -3.5925 0
M  V30 104 H 1.4053 2.595 -2.135 0
M  V30 105 H 2.5363 -0.6662 -7.4292 0
M  V30 106 H 4.1675 -0.9898 -6.8133 0
M  V30 107 H 3.3443 -2.1858 -7.8312 0
M  V30 108 H 3.0307 -3.8241 -4.5261 0
M  V30 109 H 4.4513 -2.8423 -4.9312 0
M  V30 110 H 3.7281 -3.9183 -6.1381 0
M  V30 111 H -6.2991 -2.5199 -0.9248 0
M  V30 112 H -4.8114 -3.4517 -1.0193 0
M  V30 113 H 0.6256 1.4992 -4.8003 0
M  V30 114 H 1.023 3.1186 -4.3259 0
M  V30 115 H 2.3046 1.9046 -4.3472 0
M  V30 116 H -5.552 -0.1145 -4.3648 0
M  V30 117 H -5.6342 1.1607 -3.1417 0
M  V30 118 H -6.9366 -0.0528 -3.2356 0
M  V30 119 H -5.956 -4.8753 -2.847 0
M  V30 120 H -2.0172 2.6874 -1.2888 0
M  V30 121 H -4.4848 1.7742 -1.2958 0
M  V30 122 H -6.0839 1.1545 -0.8296 0
M  V30 123 H -5.6703 -5.6424 -0.5087 0
M  V30 124 H -7.1787 -4.8377 -0.0394 0
M  V30 125 H -7.211 -6.2011 -1.1723 0
M  V30 126 H -7.8062 -3.3335 -3.4752 0
M  V30 127 H -8.4449 -3.402 -1.825 0
M  V30 128 H -8.4501 -4.8484 -2.8462 0
M  V30 129 H 0.2723 4.3452 -2.0523 0
M  V30 130 H -2.0204 4.9379 -0.098 0
M  V30 131 H -1.9945 5.3926 -1.8078 0
M  V30 132 H -0.8315 6.1 -0.671 0
M  V30 133 H -6.5582 0.3888 1.3073 0
M  V30 134 H -5.5103 0.8708 2.6479 0
M  V30 135 H -5.1385 -0.6094 1.721 0
M  V30 136 H -3.4715 0.8667 3.0497 0
M  V30 137 H 3.15 4.8381 1.5436 0
M  V30 138 H 2.9088 4.8833 -1.2078 0
M  V30 139 H 1.4148 5.8478 -1.257 0
M  V30 140 H 2.6237 6.1973 -0.0294 0
M  V30 141 H -1.0951 1.1775 1.3027 0
M  V30 142 H -1.9784 3.5048 2.5537 0
M  V30 143 H -1.871 2.569 4.0361 0
M  V30 144 H 2.4032 3.4564 3.5342 0
M  V30 145 H 0.8255 3.3437 2.8204 0
M  V30 146 H -3.4935 4.3927 4.2919 0
M  V30 147 H -4.3377 2.8383 4.3905 0
M  V30 148 H -4.4355 3.8132 2.9103 0
M  V30 149 H 2.2965 5.9395 3.5118 0
M  V30 150 H 0.5625 -0.2354 1.5598 0
M  V30 151 H 6.2488 1.4839 2.0528 0
M  V30 152 H 4.6893 4.2722 2.9888 0
M  V30 153 H 6.2346 3.5025 2.5889 0
M  V30 154 H 5.3883 4.4641 1.3568 0
M  V30 155 H 0.7121 6.4622 1.7284 0
M  V30 156 H -0.5674 5.5118 2.5084 0
M  V30 157 H 0.0181 7.0109 3.2439 0
M  V30 158 H 1.6555 4.6045 5.503 0
M  V30 159 H -0.022 4.5289 4.9336 0
M  V30 160 H 0.6943 6.0837 5.3947 0
M  V30 161 H -1.0092 -1.504 0.3928 0
M  V30 162 H 5.6828 2.0064 -0.4848 0
M  V30 163 H 4.706 0.5508 -0.3899 0
M  V30 164 H 1.898 -2.8957 4.4106 0
M  V30 165 H 1.3922 -3.4133 2.8098 0
M  V30 166 H 0.1808 -2.9993 4.0749 0
M  V30 167 H 1.2223 -2.0119 0.151 0
M  V30 168 H -0.8634 -3.8514 2.3393 0
M  V30 169 H 6.8075 -0.6892 0.4399 0
M  V30 170 H 3.6134 -1.7447 3.7183 0
M  V30 171 H -3.3162 -2.0461 1.8057 0
M  V30 172 H -0.969 -4.5551 0.022 0
M  V30 173 H -2.3643 -3.5062 -0.282 0
M  V30 174 H -2.5063 -4.8874 0.8154 0
M  V30 175 H 5.5399 1.8938 4.0843 0
M  V30 176 H 3.8231 2.0339 4.5554 0
M  V30 177 H 4.9712 1.0345 5.4802 0
M  V30 178 H 5.9354 -0.8817 -1.8719 0
M  V30 179 H 6.8497 0.5575 -2.3576 0
M  V30 180 H 7.7031 -0.9145 -1.8595 0
M  V30 181 H 8.2058 1.2416 1.132 0
M  V30 182 H 8.1755 1.8831 -0.5188 0
M  V30 183 H 8.9959 0.3535 -0.1679 0
M  V30 184 H 3.106 0.0786 6.1445 0
M  V30 185 H 2.351 -1.4672 5.9724 0
M  V30 186 H -2.4415 -3.8659 4.1219 0
M  V30 187 H 5.3974 -1.1318 5.997 0
M  V30 188 H -4.9486 -3.5905 4.4864 0
M  V30 189 H -4.0595 -2.2387 5.215 0
M  V30 190 H -4.8968 -2.0196 3.6695 0
M  V30 191 H 4.4067 -0.3845 8.1442 0
M  V30 192 H 3.5068 -1.9064 8.2787 0
M  V30 193 H 5.2784 -1.9096 8.3441 0
M  V30 194 H 4.7014 -3.2453 4.9208 0
M  V30 195 H 3.6302 -3.6173 6.2837 0
M  V30 196 H 5.3856 -3.5721 6.5107 0
M  V30 END ATOM
M  V30 BEGIN BOND
M  V30 1 2 1 2
M  V30 2 1 2 3
M  V30 3 1 2 4
M  V30 4 1 3 5
M  V30 5 1 3 6
M  V30 6 1 4 7
M  V30 7 1 4 8
M  V30 8 1 5 9
M  V30 9 1 5 10
M  V30 10 1 7 11
M  V30 11 1 8 12
M  V30 12 1 8 13
M  V30 13 2 9 14
M  V30 14 1 9 15
M  V30 15 1 10 16
M  V30 16 2 11 17
M  V30 17 1 11 18
M  V30 18 1 15 19
M  V30 19 1 16 20
M  V30 20 1 16 21
M  V30 21 1 18 22
M  V30 22 1 18 23
M  V30 23 1 19 24
M  V30 24 1 19 25
M  V30 25 1 22 26
M  V30 26 1 22 27
M  V30 27 1 23 28
M  V30 28 2 24 29
M  V30 29 1 24 30
M  V30 30 2 26 31
M  V30 31 1 26 32
M  V30 32 1 28 33
M  V30 33 1 28 34
M  V30 34 1 30 35
M  V30 35 1 32 36
M  V30 36 1 35 37
M  V30 37 1 35 38
M  V30 38 1 36 39
M  V30 39 1 36 40
M  V30 40 2 37 41
M  V30 41 1 37 42
M  V30 42 2 39 43
M  V30 43 1 39 44
M  V30 44 1 42 45
M  V30 45 1 42 46
M  V30 46 1 44 47
M  V30 47 1 44 48
M  V30 48 1 45 49
M  V30 49 1 45 50
M  V30 50 1 47 51
M  V30 51 1 48 52
M  V30 52 2 49 53
M  V30 53 1 49 54
M  V30 54 1 50 55
M  V30 55 2 51 56
M  V30 56 1 51 57
M  V30 57 1 54 58
M  V30 58 1 54 59
M  V30 59 1 55 60
M  V30 60 1 55 61
M  V30 61 1 57 62
M  V30 62 1 57 63
M  V30 63 1 58 64
M  V30 64 1 58 65
M  V30 65 1 62 66
M  V30 66 1 62 67
M  V30 67 1 63 68
M  V30 68 1 63 69
M  V30 69 2 64 70
M  V30 70 1 64 71
M  V30 71 1 65 72
M  V30 72 2 66 73
M  V30 73 1 66 74
M  V30 74 1 69 75
M  V30 75 1 69 76
M  V30 76 1 71 77
M  V30 77 1 72 78
M  V30 78 1 72 79
M  V30 79 1 74 80
M  V30 80 2 75 81
M  V30 81 1 80 82
M  V30 82 1 81 83
M  V30 83 1 82 84
M  V30 84 1 82 85
M  V30 85 1 71 74
M  V30 86 1 4 86
M  V30 87 1 5 87
M  V30 88 1 6 88
M  V30 89 1 6 89
M  V30 90 1 6 90
M  V30 91 1 7 91
M  V30 92 1 8 92
M  V30 93 1 10 93
M  V30 94 1 10 94
M  V30 95 1 12 95
M  V30 96 1 12 96
M  V30 97 1 12 97
M  V30 98 1 13 98
M  V30 99 1 13 99
M  V30 100 1 13 100
M  V30 101 1 15 101
M  V30 102 1 16 102
M  V30 103 1 18 103
M  V30 104 1 19 104
M  V30 105 1 20 105
M  V30 106 1 20 106
M  V30 107 1 20 107
M  V30 108 1 21 108
M  V30 109 1 21 109
M  V30 110 1 21 110
M  V30 111 1 23 111
M  V30 112 1 23 112
M  V30 113 1 25 113
M  V30 114 1 25 114
M  V30 115 1 25 115
M  V30 116 1 27 116
M  V30 117 1 27 117
M  V30 118 1 27 118
M  V30 119 1 28 119
M  V30 120 1 30 120
M  V30 121 1 32 121
M  V30 122 1 32 122
M  V30 123 1 33 123
M  V30 124 1 33 124
M  V30 125 1 33 125
M  V30 126 1 34 126
M  V30 127 1 34 127
M  V30 128 1 34 128
M  V30 129 1 35 129
M  V30 130 1 38 130
M  V30 131 1 38 131
M  V30 132 1 38 132
M  V30 133 1 40 133
M  V30 134 1 40 134
M  V30 135 1 40 135
M  V30 136 1 44 136
M  V30 137 1 45 137
M  V30 138 1 46 138
M  V30 139 1 46 139
M  V30 140 1 46 140
M  V30 141 1 47 141
M  V30 142 1 48 142
M  V30 143 1 48 143
M  V30 144 1 50 144
M  V30 145 1 50 145
M  V30 146 1 52 146
M  V30 147 1 52 147
M  V30 148 1 52 148
M  V30 149 1 55 149
M  V30 150 1 57 150
M  V30 151 1 58 151
M  V30 152 1 59 152
M  V30 153 1 59 153
M  V30 154 1 59 154
M  V30 155 1 60 155
M  V30 156 1 60 156
M  V30 157 1 60 157
M  V30 158 1 61 158
M  V30 159 1 61 159
M  V30 160 1 61 160
M  V30 161 1 63 161
M  V30 162 1 65 162
M  V30 163 1 65 163
M  V30 164 1 67 164
M  V30 165 1 67 165
M  V30 166 1 67 166
M  V30 167 1 68 167
M  V30 168 1 69 168
M  V30 169 1 72 169
M  V30 170 1 74 170
M  V30 171 1 75 171
M  V30 172 1 76 172
M  V30 173 1 76 173
M  V30 174 1 76 174
M  V30 175 1 77 175
M  V30 176 1 77 176
M  V30 177 1 77 177
M  V30 178 1 78 178
M  V30 179 1 78 179
M  V30 180 1 78 180
M  V30 181 1 79 181
M  V30 182 1 79 182
M  V30 183 1 79 183
M  V30 184 1 80 184
M  V30 185 1 80 185
M  V30 186 1 81 186
M  V30 187 1 82 187
M  V30 188 1 83 188
M  V30 189 1 83 189
M  V30 190 1 83 190
M  V30 191 1 84 191
M  V30 192 1 84 192
M  V30 193 1 84 193
M  V30 194 1 85 194
M  V30 195 1 85 195
M  V30 196 1 85 196
M  V30 END BOND
M  V30 END CTAB
M  END
>  <level_0>
186

>  <index>
186

>  <NO.>
187

>  <Name>
cyclosporine a

>  <SMILES>
C/C=C/C(C)C(O)C1C(=O)NC(CC)C(=O)N(C)CC(=O)N(C)C(CC(C)C)C(=O)NC(C(C)C)C(=O)N(C)C(CC(C)C)C(=O)NC(C)C(=O)NC(C)C(=O)N(C)C(CC(C)C)C(=O)N(C)C(CC(C)C)C(=O)N(C)C(CC(C)C)C(=O)N1C

>  <logBB>
-0.78

>  <Class>
1

>  <MW>
1201.84

>  <nHBAcc>
12

>  <nHBDon>
5

>  <SLogP>
3.27

>  <TopoPSA>
278.8

>  <MMFF94 Energy>
308.65

$$$$
CC=CCC(C)C(O)C1C(=O)NC(CC)C(=O)N(C)CC(=O)N(C)C(CC(C)C)C(=O)NC(C(C)C)C(=O)N(C)C(CC(C)C)C(=O)NC(C)C(=O)NC(C)C(=O)N(C)C(CC(C)C)C(=O)N(C)C(CC(C)C)C(=O)N(C)C(C(C)C)C(=O)N1C
Actelion Java MolfileCreator 2.0

  0  0  0  0  0  0              0 V3000
M  V30 BEGIN CTAB
M  V30 COUNTS 196 196 0 0 0
M  V30 BEGIN ATOM
M  V30 1 O -1.5662 -3.0558 -0.7828 0
M  V30 2 C -1.5763 -2.1173 -1.5806 0
M  V30 3 N -0.3723 -1.643 -2.1001 0
M  V30 4 C -2.9261 -1.4236 -1.9607 0
M  V30 5 C 0.8991 -2.2584 -1.6185 0
M  V30 6 C -0.3078 -1.0204 -3.4185 0
M  V30 7 N -4.0569 -2.4098 -1.9208 0
M  V30 8 C -3.2236 -0.0996 -1.2022 0
M  V30 9 C 1.0439 -2.4739 -0.0858 0
M  V30 10 C 1.4419 -3.4545 -2.4676 0
M  V30 11 C -4.7231 -2.9409 -0.8111 0
M  V30 12 C -4.5228 -2.8449 -3.2327 0
M  V30 13 C -2.2216 1.0191 -1.5066 0
M  V30 14 C -4.6226 0.4463 -1.5242 0
M  V30 15 O 1.6798 -3.4189 0.3774 0
M  V30 16 N 0.5814 -1.4363 0.6997 0
M  V30 17 O 1.9919 -2.9088 -3.6867 0
M  V30 18 C 0.436 -4.5973 -2.7911 0
M  V30 19 O -5.7944 -3.5477 -0.9677 0
M  V30 20 C -4.1946 -2.7416 0.6379 0
M  V30 21 C 0.4401 -1.4341 2.1646 0
M  V30 22 C 0.8503 -5.459 -4.0112 0
M  V30 23 C 0.2736 -5.5303 -1.5816 0
M  V30 24 N -4.9759 -1.7266 1.4214 0
M  V30 25 C -4.2342 -4.0745 1.4393 0
M  V30 26 C 1.4181 -0.5499 3.0081 0
M  V30 27 C 0.2658 -2.8294 2.7941 0
M  V30 28 C 0.4198 -4.871 -5.3313 0
M  V30 29 C -4.2569 -0.8909 2.2711 0
M  V30 30 C -6.4334 -1.7698 1.3208 0
M  V30 31 C -3.1561 -5.1214 1.0928 0
M  V30 32 O 0.9274 0.1623 3.8997 0
M  V30 33 N 2.7986 -0.6578 2.8792 0
M  V30 34 C -0.3916 -2.7913 4.169 0
M  V30 35 C -0.5315 -5.4023 -6.1148 0
M  V30 36 O -3.0195 -0.9177 2.2747 0
M  V30 37 C -4.9995 0.0665 3.2482 0
M  V30 38 C -3.1121 -6.1901 2.1921 0
M  V30 39 C -3.3887 -5.8055 -0.2539 0
M  V30 40 C 3.4502 -1.443 1.8335 0
M  V30 41 C 3.6505 -0.0324 3.8814 0
M  V30 42 C -0.9514 -4.8222 -7.4254 0
M  V30 43 N -4.0944 1.2197 3.5166 0
M  V30 44 C -5.4623 -0.7128 4.4924 0
M  V30 45 C 4.9848 -1.4581 1.7379 0
M  V30 46 C -4.1085 2.227 2.5486 0
M  V30 47 C -3.0227 1.0769 4.5059 0
M  V30 48 C -6.2985 0.1134 5.491 0
M  V30 49 O 5.6414 -2.2347 2.4386 0
M  V30 50 N 5.6082 -0.5605 0.8724 0
M  V30 51 O -5.07 2.3681 1.787 0
M  V30 52 C -2.8259 3.0776 2.3608 0
M  V30 53 C -7.6193 0.5925 4.8862 0
M  V30 54 C -6.5783 -0.7214 6.7434 0
M  V30 55 C 4.9937 0.7007 0.3928 0
M  V30 56 C 6.9611 -0.8953 0.4698 0
M  V30 57 N -1.8027 2.176 1.8184 0
M  V30 58 C -3.1152 4.2265 1.3902 0
M  V30 59 C 4.3982 0.6151 -1.04 0
M  V30 60 C 5.8163 1.9828 0.6896 0
M  V30 61 C -0.4678 2.3579 1.6207 0
M  V30 62 O 4.6657 -0.2853 -1.8326 0
M  V30 63 N 3.509 1.6339 -1.3418 0
M  V30 64 C 7.1452 2.2728 -0.0422 0
M  V30 65 O 0.1367 1.4923 0.9796 0
M  V30 66 C 0.21 3.6586 2.106 0
M  V30 67 C 2.797 1.7119 -2.616 0
M  V30 68 C 7.0121 2.3658 -1.5582 0
M  V30 69 C 7.7321 3.5889 0.49 0
M  V30 70 N 0.7598 4.3418 0.9315 0
M  V30 71 C 1.2028 3.3871 3.2278 0
M  V30 72 C 1.4305 2.479 -2.6745 0
M  V30 73 C 3.731 2.081 -3.8084 0
M  V30 74 C 1.8948 3.9252 0.2828 0
M  V30 75 O 0.5625 2.0012 -3.4234 0
M  V30 76 N 1.1967 3.7176 -2.0718 0
M  V30 77 C 3.1736 1.5554 -5.1384 0
M  V30 78 C 4.039 3.5718 -3.9462 0
M  V30 79 O 2.6781 3.1013 0.7546 0
M  V30 80 C 2.1202 4.4382 -1.1572 0
M  V30 81 C -0.1081 4.3298 -2.3325 0
M  V30 82 C 2.0731 5.9741 -1.2685 0
M  V30 83 C 3.1189 6.7145 -0.4062 0
M  V30 84 C 4.5567 6.3595 -0.7881 0
M  V30 85 C 2.9122 8.2266 -0.5333 0
M  V30 86 H -2.8487 -1.1522 -3.0189 0
M  V30 87 H 1.6272 -1.4452 -1.7727 0
M  V30 88 H -0.4772 -1.7933 -4.1743 0
M  V30 89 H 0.67 -0.5639 -3.5764 0
M  V30 90 H -1.0703 -0.2571 -3.5494 0
M  V30 91 H -3.1621 -0.2785 -0.1307 0
M  V30 92 H 2.3031 -3.9034 -1.9568 0
M  V30 93 H -3.6644 -3.2031 -3.81 0
M  V30 94 H -5.2555 -3.6539 -3.1813 0
M  V30 95 H -4.9762 -1.99 -3.7432 0
M  V30 96 H -1.2032 0.7364 -1.2342 0
M  V30 97 H -2.466 1.9216 -0.9373 0
M  V30 98 H -2.2433 1.2979 -2.5645 0
M  V30 99 H -5.4132 -0.246 -1.2284 0
M  V30 100 H -4.7306 0.6427 -2.5965 0
M  V30 101 H -4.8056 1.3855 -0.9907 0
M  V30 102 H 0.2456 -0.5939 0.241 0
M  V30 103 H 2.8371 -2.4803 -3.452 0
M  V30 104 H -0.5462 -4.1701 -3.0194 0
M  V30 105 H -3.1625 -2.4123 0.6111 0
M  V30 106 H -0.5229 -0.9219 2.2833 0
M  V30 107 H 1.937 -5.6084 -4.0216 0
M  V30 108 H 0.4122 -6.4617 -3.9207 0
M  V30 109 H -0.07 -5.0016 -0.6918 0
M  V30 110 H -0.4648 -6.3113 -1.7928 0
M  V30 111 H 1.2204 -6.0231 -1.3353 0
M  V30 112 H -4.1164 -3.8234 2.5032 0
M  V30 113 H -5.2251 -4.5395 1.3564 0
M  V30 114 H -0.3632 -3.4496 2.1453 0
M  V30 115 H 1.2308 -3.3375 2.8898 0
M  V30 116 H 0.935 -3.9673 -5.6494 0
M  V30 117 H -6.7795 -2.7899 1.5064 0
M  V30 118 H -6.7322 -1.4544 0.3185 0
M  V30 119 H -6.9306 -1.1177 2.0366 0
M  V30 120 H -2.1755 -4.6355 1.0788 0
M  V30 121 H -1.3607 -2.2844 4.1306 0
M  V30 122 H 0.2394 -2.2795 4.9013 0
M  V30 123 H -0.5598 -3.8107 4.531 0
M  V30 124 H -1.0451 -6.3087 -5.8017 0
M  V30 125 H -5.8721 0.4559 2.7204 0
M  V30 126 H -2.8905 -5.7394 3.1656 0
M  V30 127 H -4.0683 -6.7185 2.2714 0
M  V30 128 H -2.3308 -6.9295 1.9862 0
M  V30 129 H -3.252 -5.1156 -1.0889 0
M  V30 130 H -4.3978 -6.2261 -0.3174 0
M  V30 131 H -2.676 -6.6242 -0.4013 0
M  V30 132 H 3.0542 -1.1302 0.8674 0
M  V30 133 H 3.1614 -2.4838 1.9996 0
M  V30 134 H 4.2215 -0.8115 4.3949 0
M  V30 135 H 3.078 0.5179 4.6323 0
M  V30 136 H 4.3322 0.6687 3.3942 0
M  V30 137 H -0.3947 -3.9132 -7.6736 0
M  V30 138 H -0.7888 -5.5514 -8.2247 0
M  V30 139 H -2.0166 -4.5729 -7.3978 0
M  V30 140 H -4.5915 -1.1413 5.0048 0
M  V30 141 H -6.0525 -1.5831 4.1774 0
M  V30 142 H -3.4072 0.6412 5.4291 0
M  V30 143 H -2.2226 0.4496 4.1085 0
M  V30 144 H -2.604 2.0498 4.7682 0
M  V30 145 H -5.7288 0.9964 5.8028 0
M  V30 146 H -2.4862 3.4923 3.3119 0
M  V30 147 H -7.4506 1.3016 4.0705 0
M  V30 148 H -8.2047 -0.2463 4.4951 0
M  V30 149 H -8.2273 1.106 5.639 0
M  V30 150 H -5.6428 -1.0384 7.2163 0
M  V30 151 H -7.1584 -1.6186 6.5022 0
M  V30 152 H -7.143 -0.1407 7.4806 0
M  V30 153 H 4.1023 0.8328 1.0165 0
M  V30 154 H 7.6624 -0.4112 1.1539 0
M  V30 155 H 7.1282 -1.976 0.5256 0
M  V30 156 H 7.1362 -0.5833 -0.5618 0
M  V30 157 H -2.115 1.2476 1.5353 0
M  V30 158 H -3.4178 3.852 0.4056 0
M  V30 159 H -3.9255 4.8581 1.7707 0
M  V30 160 H -2.2426 4.8654 1.2341 0
M  V30 161 H 5.1665 2.8493 0.5171 0
M  V30 162 H 6.0263 1.984 1.7686 0
M  V30 163 H 3.1544 2.1457 -0.5365 0
M  V30 164 H 7.8803 1.4998 0.1884 0
M  V30 165 H -0.535 4.3484 2.5068 0
M  V30 166 H 2.4975 0.6668 -2.7796 0
M  V30 167 H 6.7589 1.3999 -1.9999 0
M  V30 168 H 6.2485 3.0946 -1.8404 0
M  V30 169 H 7.9575 2.6819 -2.0128 0
M  V30 170 H 7.8839 3.5377 1.5734 0
M  V30 171 H 7.0704 4.4355 0.2788 0
M  V30 172 H 8.7038 3.7965 0.0292 0
M  V30 173 H 0.1636 5.0223 0.4854 0
M  V30 174 H 1.7698 4.2899 3.4771 0
M  V30 175 H 0.6718 3.0579 4.1279 0
M  V30 176 H 1.9148 2.5961 2.9778 0
M  V30 177 H 4.693 1.5739 -3.6625 0
M  V30 178 H 2.2576 2.0781 -5.4308 0
M  V30 179 H 2.9551 0.4842 -5.0767 0
M  V30 180 H 3.9042 1.6963 -5.9426 0
M  V30 181 H 4.7259 3.7439 -4.7825 0
M  V30 182 H 4.5259 3.9628 -3.051 0
M  V30 183 H 3.1371 4.1602 -4.1403 0
M  V30 184 H 3.1286 4.1296 -1.4257 0
M  V30 185 H -0.7741 3.698 -2.9251 0
M  V30 186 H 0.0419 5.2602 -2.8872 0
M  V30 187 H -0.6162 4.5391 -1.3898 0
M  V30 188 H 2.2186 6.2533 -2.3208 0
M  V30 189 H 1.0788 6.3447 -0.991 0
M  V30 190 H 2.9692 6.4495 0.6474 0
M  V30 191 H 4.7816 5.3125 -0.566 0
M  V30 192 H 4.7383 6.5303 -1.8544 0
M  V30 193 H 5.2708 6.9675 -0.2222 0
M  V30 194 H 1.9007 8.5089 -0.2226 0
M  V30 195 H 3.0567 8.5623 -1.5659 0
M  V30 196 H 3.6186 8.7712 0.1021 0
M  V30 END ATOM
M  V30 BEGIN BOND
M  V30 1 2 1 2
M  V30 2 1 2 3
M  V30 3 1 2 4
M  V30 4 1 3 5
M  V30 5 1 3 6
M  V30 6 1 4 7
M  V30 7 1 4 8
M  V30 8 1 5 9
M  V30 9 1 5 10
M  V30 10 1 7 11
M  V30 11 1 7 12
M  V30 12 1 8 13
M  V30 13 1 8 14
M  V30 14 2 9 15
M  V30 15 1 9 16
M  V30 16 1 10 17
M  V30 17 1 10 18
M  V30 18 2 11 19
M  V30 19 1 11 20
M  V30 20 1 16 21
M  V30 21 1 18 22
M  V30 22 1 18 23
M  V30 23 1 20 24
M  V30 24 1 20 25
M  V30 25 1 21 26
M  V30 26 1 21 27
M  V30 27 1 22 28
M  V30 28 1 24 29
M  V30 29 1 24 30
M  V30 30 1 25 31
M  V30 31 2 26 32
M  V30 32 1 26 33
M  V30 33 1 27 34
M  V30 34 2 28 35
M  V30 35 2 29 36
M  V30 36 1 29 37
M  V30 37 1 31 38
M  V30 38 1 31 39
M  V30 39 1 33 40
M  V30 40 1 33 41
M  V30 41 1 35 42
M  V30 42 1 37 43
M  V30 43 1 37 44
M  V30 44 1 40 45
M  V30 45 1 43 46
M  V30 46 1 43 47
M  V30 47 1 44 48
M  V30 48 2 45 49
M  V30 49 1 45 50
M  V30 50 2 46 51
M  V30 51 1 46 52
M  V30 52 1 48 53
M  V30 53 1 48 54
M  V30 54 1 50 55
M  V30 55 1 50 56
M  V30 56 1 52 57
M  V30 57 1 52 58
M  V30 58 1 55 59
M  V30 59 1 55 60
M  V30 60 1 57 61
M  V30 61 2 59 62
M  V30 62 1 59 63
M  V30 63 1 60 64
M  V30 64 2 61 65
M  V30 65 1 61 66
M  V30 66 1 63 67
M  V30 67 1 64 68
M  V30 68 1 64 69
M  V30 69 1 66 70
M  V30 70 1 66 71
M  V30 71 1 67 72
M  V30 72 1 67 73
M  V30 73 1 70 74
M  V30 74 2 72 75
M  V30 75 1 72 76
M  V30 76 1 73 77
M  V30 77 1 73 78
M  V30 78 2 74 79
M  V30 79 1 74 80
M  V30 80 1 76 81
M  V30 81 1 80 82
M  V30 82 1 82 83
M  V30 83 1 83 84
M  V30 84 1 83 85
M  V30 85 1 76 80
M  V30 86 1 4 86
M  V30 87 1 5 87
M  V30 88 1 6 88
M  V30 89 1 6 89
M  V30 90 1 6 90
M  V30 91 1 8 91
M  V30 92 1 10 92
M  V30 93 1 12 93
M  V30 94 1 12 94
M  V30 95 1 12 95
M  V30 96 1 13 96
M  V30 97 1 13 97
M  V30 98 1 13 98
M  V30 99 1 14 99
M  V30 100 1 14 100
M  V30 101 1 14 101
M  V30 102 1 16 102
M  V30 103 1 17 103
M  V30 104 1 18 104
M  V30 105 1 20 105
M  V30 106 1 21 106
M  V30 107 1 22 107
M  V30 108 1 22 108
M  V30 109 1 23 109
M  V30 110 1 23 110
M  V30 111 1 23 111
M  V30 112 1 25 112
M  V30 113 1 25 113
M  V30 114 1 27 114
M  V30 115 1 27 115
M  V30 116 1 28 116
M  V30 117 1 30 117
M  V30 118 1 30 118
M  V30 119 1 30 119
M  V30 120 1 31 120
M  V30 121 1 34 121
M  V30 122 1 34 122
M  V30 123 1 34 123
M  V30 124 1 35 124
M  V30 125 1 37 125
M  V30 126 1 38 126
M  V30 127 1 38 127
M  V30 128 1 38 128
M  V30 129 1 39 129
M  V30 130 1 39 130
M  V30 131 1 39 131
M  V30 132 1 40 132
M  V30 133 1 40 133
M  V30 134 1 41 134
M  V30 135 1 41 135
M  V30 136 1 41 136
M  V30 137 1 42 137
M  V30 138 1 42 138
M  V30 139 1 42 139
M  V30 140 1 44 140
M  V30 141 1 44 141
M  V30 142 1 47 142
M  V30 143 1 47 143
M  V30 144 1 47 144
M  V30 145 1 48 145
M  V30 146 1 52 146
M  V30 147 1 53 147
M  V30 148 1 53 148
M  V30 149 1 53 149
M  V30 150 1 54 150
M  V30 151 1 54 151
M  V30 152 1 54 152
M  V30 153 1 55 153
M  V30 154 1 56 154
M  V30 155 1 56 155
M  V30 156 1 56 156
M  V30 157 1 57 157
M  V30 158 1 58 158
M  V30 159 1 58 159
M  V30 160 1 58 160
M  V30 161 1 60 161
M  V30 162 1 60 162
M  V30 163 1 63 163
M  V30 164 1 64 164
M  V30 165 1 66 165
M  V30 166 1 67 166
M  V30 167 1 68 167
M  V30 168 1 68 168
M  V30 169 1 68 169
M  V30 170 1 69 170
M  V30 171 1 69 171
M  V30 172 1 69 172
M  V30 173 1 70 173
M  V30 174 1 71 174
M  V30 175 1 71 175
M  V30 176 1 71 176
M  V30 177 1 73 177
M  V30 178 1 77 178
M  V30 179 1 77 179
M  V30 180 1 77 180
M  V30 181 1 78 181
M  V30 182 1 78 182
M  V30 183 1 78 183
M  V30 184 1 80 184
M  V30 185 1 81 185
M  V30 186 1 81 186
M  V30 187 1 81 187
M  V30 188 1 82 188
M  V30 189 1 82 189
M  V30 190 1 83 190
M  V30 191 1 84 191
M  V30 192 1 84 192
M  V30 193 1 84 193
M  V30 194 1 85 194
M  V30 195 1 85 195
M  V30 196 1 85 196
M  V30 END BOND
M  V30 END CTAB
M  END
>  <level_0>
189

>  <index>
189

>  <NO.>
190

>  <Name>
cyclosporin a

>  <SMILES>
CC=CCC(C)C(O)C1C(=O)NC(CC)C(=O)N(C)CC(=O)N(C)C(CC(C)C)C(=O)NC(C(C)C)C(=O)N(C)C(CC(C)C)C(=O)NC(C)C(=O)NC(C)C(=O)N(C)C(CC(C)C)C(=O)N(C)C(CC(C)C)C(=O)N(C)C(C(C)C)C(=O)N1C

>  <logBB>
-0.78

>  <Class>
1

>  <MW>
1201.84

>  <nHBAcc>
12

>  <nHBDon>
5

>  <SLogP>
3.27

>  <TopoPSA>
278.8

>  <MMFF94 Energy>
305.15

$$$$
Oc1ccc(-c2ccc3cc(O)ccc3c2Oc2ccc(OCCN3CCCCC3)cc2)cc1
Actelion Java MolfileCreator 2.0

  0  0  0  0  0  0              0 V3000
M  V30 BEGIN CTAB
M  V30 COUNTS 63 67 0 0 0
M  V30 BEGIN ATOM
M  V30 1 O 3.2725 0.4784 -0.3189 0
M  V30 2 C 3.7739 -0.0729 0.8489 0
M  V30 3 C 1.9809 0.1385 -0.6651 0
M  V30 4 C 4.7686 -1.0779 0.7349 0
M  V30 5 C 3.3352 0.4068 2.1028 0
M  V30 6 C 1.4007 -1.1064 -0.412 0
M  V30 7 C 1.2532 1.1143 -1.3447 0
M  V30 8 C 5.2932 -1.6476 1.919 0
M  V30 9 C 5.255 -1.5456 -0.5058 0
M  V30 10 C 2.3621 1.5021 2.2418 0
M  V30 11 C 3.8737 -0.1846 3.2538 0
M  V30 12 C 0.0826 -1.3614 -0.8089 0
M  V30 13 C -0.0616 0.8576 -1.7366 0
M  V30 14 C 6.2699 -2.6553 1.8381 0
M  V30 15 C 4.8322 -1.1973 3.1643 0
M  V30 16 C 6.2252 -2.5459 -0.5731 0
M  V30 17 C 1.0845 1.2668 2.7757 0
M  V30 18 C 2.6887 2.8094 1.843 0
M  V30 19 C -0.6562 -0.3769 -1.4656 0
M  V30 20 C 6.7242 -3.0928 0.5978 0
M  V30 21 C 0.16 2.306 2.9014 0
M  V30 22 C 1.766 3.8517 1.9692 0
M  V30 23 O -1.9474 -0.494 -1.8981 0
M  V30 24 O 7.6706 -4.0682 0.4894 0
M  V30 25 C 0.5075 3.5886 2.498 0
M  V30 26 C -2.6421 -1.6986 -1.5636 0
M  V30 27 O -0.4242 4.5739 2.6382 0
M  V30 28 C -4.1024 -1.5938 -2.0461 0
M  V30 29 N -5.0368 -0.9971 -1.0671 0
M  V30 30 C -6.4316 -1.0765 -1.5319 0
M  V30 31 C -4.7051 0.3853 -0.6873 0
M  V30 32 C -6.7715 -0.1011 -2.6629 0
M  V30 33 C -4.9581 1.4106 -1.7944 0
M  V30 34 C -6.3964 1.3311 -2.2961 0
M  V30 35 H 1.9575 -1.8927 0.0887 0
M  V30 36 H 1.7013 2.0813 -1.5531 0
M  V30 37 H 4.875 -1.1284 -1.4365 0
M  V30 38 H 3.5579 0.1562 4.2386 0
M  V30 39 H -0.3327 -2.3395 -0.5915 0
M  V30 40 H -0.6295 1.6282 -2.2514 0
M  V30 41 H 6.6708 -3.0913 2.7486 0
M  V30 42 H 5.2258 -1.6229 4.0854 0
M  V30 43 H 6.5869 -2.8933 -1.5365 0
M  V30 44 H 0.7953 0.2637 3.0812 0
M  V30 45 H 3.6717 3.0185 1.4254 0
M  V30 46 H -0.8287 2.1118 3.3064 0
M  V30 47 H 2.0473 4.8499 1.6503 0
M  V30 48 H 7.9337 -4.3496 1.3807 0
M  V30 49 H -2.6148 -1.8881 -0.4834 0
M  V30 50 H -2.1666 -2.5355 -2.0897 0
M  V30 51 H -0.0489 5.4033 2.3006 0
M  V30 52 H -4.1323 -1.0646 -3.0051 0
M  V30 53 H -4.4416 -2.6213 -2.2289 0
M  V30 54 H -7.0905 -0.8713 -0.6778 0
M  V30 55 H -6.6716 -2.1009 -1.8424 0
M  V30 56 H -3.6743 0.4636 -0.328 0
M  V30 57 H -5.3196 0.653 0.1831 0
M  V30 58 H -7.8445 -0.1529 -2.8808 0
M  V30 59 H -6.2515 -0.3928 -3.5827 0
M  V30 60 H -4.2654 1.249 -2.6284 0
M  V30 61 H -4.7605 2.4188 -1.4125 0
M  V30 62 H -6.53 1.9887 -3.162 0
M  V30 63 H -7.0736 1.6927 -1.5123 0
M  V30 END ATOM
M  V30 BEGIN BOND
M  V30 1 1 1 2
M  V30 2 1 1 3
M  V30 3 1 2 4
M  V30 4 2 2 5
M  V30 5 2 3 6
M  V30 6 1 3 7
M  V30 7 1 4 8
M  V30 8 2 4 9
M  V30 9 1 5 10
M  V30 10 1 5 11
M  V30 11 1 6 12
M  V30 12 2 7 13
M  V30 13 2 8 14
M  V30 14 1 8 15
M  V30 15 1 9 16
M  V30 16 2 10 17
M  V30 17 1 10 18
M  V30 18 2 12 19
M  V30 19 1 14 20
M  V30 20 1 17 21
M  V30 21 2 18 22
M  V30 22 1 19 23
M  V30 23 1 20 24
M  V30 24 2 21 25
M  V30 25 1 23 26
M  V30 26 1 25 27
M  V30 27 1 26 28
M  V30 28 1 28 29
M  V30 29 1 29 30
M  V30 30 1 29 31
M  V30 31 1 30 32
M  V30 32 1 31 33
M  V30 33 1 32 34
M  V30 34 2 11 15
M  V30 35 1 13 19
M  V30 36 2 16 20
M  V30 37 1 22 25
M  V30 38 1 33 34
M  V30 39 1 6 35
M  V30 40 1 7 36
M  V30 41 1 9 37
M  V30 42 1 11 38
M  V30 43 1 12 39
M  V30 44 1 13 40
M  V30 45 1 14 41
M  V30 46 1 15 42
M  V30 47 1 16 43
M  V30 48 1 17 44
M  V30 49 1 18 45
M  V30 50 1 21 46
M  V30 51 1 22 47
M  V30 52 1 24 48
M  V30 53 1 26 49
M  V30 54 1 26 50
M  V30 55 1 27 51
M  V30 56 1 28 52
M  V30 57 1 28 53
M  V30 58 1 30 54
M  V30 59 1 30 55
M  V30 60 1 31 56
M  V30 61 1 31 57
M  V30 62 1 32 58
M  V30 63 1 32 59
M  V30 64 1 33 60
M  V30 65 1 33 61
M  V30 66 1 34 62
M  V30 67 1 34 63
M  V30 END BOND
M  V30 END CTAB
M  END
>  <level_0>
192

>  <index>
192

>  <NO.>
193

>  <Name>
chembl244000

>  <SMILES>
Oc1ccc(-c2ccc3cc(O)ccc3c2Oc2ccc(OCCN3CCCCC3)cc2)cc1

>  <logBB>
-0.77

>  <Class>
1

>  <MW>
455.21

>  <nHBAcc>
5

>  <nHBDon>
2

>  <SLogP>
6.58

>  <TopoPSA>
62.16

>  <MMFF94 Energy>
90.846

$$$$
Cc1cn(C2CC(N=[N+]=[N-])C(CO)O2)c(=O)[nH]c1=O
Actelion Java MolfileCreator 2.0

  0  0  0  0  0  0              0 V3000
M  V30 BEGIN CTAB
M  V30 COUNTS 32 33 0 0 0
M  V30 BEGIN ATOM
M  V30 1 O 1.2742 2.8687 -0.7165 0
M  V30 2 C 0.5884 2.0519 -1.3277 0
M  V30 3 N 0.3531 0.7548 -0.8916 0
M  V30 4 N -0.0146 2.4014 -2.5054 0
M  V30 5 C -0.4743 -0.1032 -1.5904 0
M  V30 6 C 0.9808 0.3609 0.3639 0
M  V30 7 C -0.8336 1.6112 -3.258 0
M  V30 8 C -1.0737 0.2463 -2.7354 0
M  V30 9 O 1.0923 -1.0702 0.4656 0
M  V30 10 C 0.1887 0.8161 1.5827 0
M  V30 11 O -1.3467 2.0085 -4.2982 0
M  V30 12 C -1.9697 -0.6484 -3.5266 0
M  V30 13 C 0.8656 -1.4426 1.8478 0
M  V30 14 C 0.6444 -0.1562 2.6467 0
M  V30 15 C -0.3576 -2.3641 1.8693 0
M  V30 16 N 1.9321 0.2994 3.2032 0
M  V30 17 O -0.0989 -3.5308 1.0895 0
M  V30 18 N 1.8756 0.9229 4.2798 0 CHG=1
M  V30 19 N 1.8117 1.4897 5.2657 0 CHG=-1
M  V30 20 H 0.1534 3.3366 -2.841 0
M  V30 21 H -0.622 -1.0949 -1.1728 0
M  V30 22 H 2.0002 0.7661 0.3988 0
M  V30 23 H -0.8874 0.6891 1.4097 0
M  V30 24 H 0.3643 1.8683 1.828 0
M  V30 25 H -2.0799 -1.6314 -3.0565 0
M  V30 26 H -1.5659 -0.8045 -4.5322 0
M  V30 27 H -2.9688 -0.2094 -3.6163 0
M  V30 28 H 1.7482 -1.9998 2.1822 0
M  V30 29 H -0.0927 -0.2853 3.4482 0
M  V30 30 H -0.5988 -2.6806 2.8882 0
M  V30 31 H -1.234 -1.8732 1.4338 0
M  V30 32 H 0.403 -3.23 0.3069 0
M  V30 END ATOM
M  V30 BEGIN BOND
M  V30 1 2 1 2
M  V30 2 1 2 3
M  V30 3 1 2 4
M  V30 4 1 3 5
M  V30 5 1 3 6
M  V30 6 1 4 7
M  V30 7 2 5 8
M  V30 8 1 6 9
M  V30 9 1 6 10
M  V30 10 2 7 11
M  V30 11 1 8 12
M  V30 12 1 9 13
M  V30 13 1 10 14
M  V30 14 1 13 15
M  V30 15 1 14 16
M  V30 16 1 15 17
M  V30 17 2 16 18
M  V30 18 2 18 19
M  V30 19 1 7 8
M  V30 20 1 13 14
M  V30 21 1 4 20
M  V30 22 1 5 21
M  V30 23 1 6 22
M  V30 24 1 10 23
M  V30 25 1 10 24
M  V30 26 1 12 25
M  V30 27 1 12 26
M  V30 28 1 12 27
M  V30 29 1 13 28
M  V30 30 1 14 29
M  V30 31 1 15 30
M  V30 32 1 15 31
M  V30 33 1 17 32
M  V30 END BOND
M  V30 END CTAB
M  END
>  <level_0>
199

>  <index>
199

>  <NO.>
200

>  <Name>
zidovudine

>  <SMILES>
Cc1cn(C2CC(N=[N+]=[N-])C(CO)O2)c(=O)[nH]c1=O

>  <logBB>
-0.72

>  <Class>
1

>  <MW>
267.1

>  <nHBAcc>
5

>  <nHBDon>
2

>  <SLogP>
-0.2

>  <TopoPSA>
133.08

>  <MMFF94 Energy>
-74.442

$$$$
Cc1cn(C2CC(NN=N)C(CO)O2)c(=O)[nH]c1=O
Actelion Java MolfileCreator 2.0

  0  0  0  0  0  0              0 V3000
M  V30 BEGIN CTAB
M  V30 COUNTS 34 35 0 0 0
M  V30 BEGIN ATOM
M  V30 1 O 3.0055 1.7391 0.8693 0
M  V30 2 C 1.93 1.992 0.3293 0
M  V30 3 N 0.7946 1.2032 0.455 0
M  V30 4 N 1.8017 3.098 -0.466 0
M  V30 5 C -0.373 1.5096 -0.2181 0
M  V30 6 C 0.9101 0.0113 1.295 0
M  V30 7 C 0.6844 3.471 -1.1547 0
M  V30 8 C -0.4911 2.5835 -1.0083 0
M  V30 9 O -0.3808 -0.4155 1.7632 0
M  V30 10 C 1.5607 -1.1684 0.5784 0
M  V30 11 O 0.6582 4.4754 -1.8575 0
M  V30 12 C -1.7307 2.9459 -1.7567 0
M  V30 13 C -0.6137 -1.7628 1.3067 0
M  V30 14 C 0.3878 -2.0382 0.1767 0
M  V30 15 C -0.4411 -2.7165 2.4962 0
M  V30 16 N -0.1034 -1.6566 -1.1368 0
M  V30 17 O -0.6893 -4.0672 2.1311 0
M  V30 18 N -1.2658 -2.1385 -1.5916 0
M  V30 19 N -1.3656 -1.7964 -2.7779 0
M  V30 20 H 2.6144 3.6859 -0.5604 0
M  V30 21 H -1.2113 0.831 -0.085 0
M  V30 22 H 1.5034 0.2778 2.178 0
M  V30 23 H 2.2126 -0.879 -0.2521 0
M  V30 24 H 2.1773 -1.7194 1.2998 0
M  V30 25 H -2.094 3.9305 -1.4444 0
M  V30 26 H -2.536 2.2241 -1.5831 0
M  V30 27 H -1.5352 2.972 -2.8337 0
M  V30 28 H -1.65 -1.831 0.9583 0
M  V30 29 H 0.6739 -3.0919 0.097 0
M  V30 30 H 0.5708 -2.6526 2.9098 0
M  V30 31 H -1.1226 -2.4403 3.3088 0
M  V30 32 H 0.4961 -1.2629 -1.857 0
M  V30 33 H -1.6325 -4.1411 1.9004 0
M  V30 34 H -2.2376 -2.1423 -3.1962 0
M  V30 END ATOM
M  V30 BEGIN BOND
M  V30 1 2 1 2
M  V30 2 1 2 3
M  V30 3 1 2 4
M  V30 4 1 3 5
M  V30 5 1 3 6
M  V30 6 1 4 7
M  V30 7 2 5 8
M  V30 8 1 6 9
M  V30 9 1 6 10
M  V30 10 2 7 11
M  V30 11 1 8 12
M  V30 12 1 9 13
M  V30 13 1 10 14
M  V30 14 1 13 15
M  V30 15 1 14 16
M  V30 16 1 15 17
M  V30 17 1 16 18
M  V30 18 2 18 19
M  V30 19 1 7 8
M  V30 20 1 13 14
M  V30 21 1 4 20
M  V30 22 1 5 21
M  V30 23 1 6 22
M  V30 24 1 10 23
M  V30 25 1 10 24
M  V30 26 1 12 25
M  V30 27 1 12 26
M  V30 28 1 12 27
M  V30 29 1 13 28
M  V30 30 1 14 29
M  V30 31 1 15 30
M  V30 32 1 15 31
M  V30 33 1 16 32
M  V30 34 1 17 33
M  V30 35 1 19 34
M  V30 END BOND
M  V30 END CTAB
M  END
>  <level_0>
202

>  <index>
202

>  <NO.>
203

>  <Name>
zidovudine

>  <SMILES>
Cc1cn(C2CC(NN=N)C(CO)O2)c(=O)[nH]c1=O

>  <logBB>
-0.72

>  <Class>
1

>  <MW>
269.11

>  <nHBAcc>
6

>  <nHBDon>
4

>  <SLogP>
-0.97

>  <TopoPSA>
132.56

>  <MMFF94 Energy>
-84.207

$$$$
CC(C)c1nc(CN(C)C(=O)NC(C(=O)NC(Cc2ccccc2)CC(O)C(Cc2ccccc2)NC(=O)OCc2cncs2)C(C)C)cs1
Actelion Java MolfileCreator 2.0

  0  0  0  0  0  0              0 V3000
M  V30 BEGIN CTAB
M  V30 COUNTS 98 101 0 0 0
M  V30 BEGIN ATOM
M  V30 1 S -6.726 3.9193 3.5188 0
M  V30 2 C -5.113 3.8829 2.9335 0
M  V30 3 C -6.1574 3.4476 5.0664 0
M  V30 4 C -4.2628 3.5083 3.9558 0
M  V30 5 C -4.7884 4.2185 1.5195 0
M  V30 6 N -4.8601 3.2686 5.1779 0
M  V30 7 O -4.7046 2.9734 0.8241 0
M  V30 8 C -4.3405 3.1059 -0.4701 0
M  V30 9 O -4.1143 4.1628 -1.0373 0
M  V30 10 N -4.2636 1.873 -1.0358 0
M  V30 11 C -3.8878 1.6514 -2.4295 0
M  V30 12 C -3.109 0.3153 -2.5959 0
M  V30 13 C -5.1074 1.7958 -3.3759 0
M  V30 14 O -2.7784 0.0961 -3.966 0
M  V30 15 C -1.8033 0.3364 -1.7811 0
M  V30 16 C -6.1248 0.6763 -3.3188 0
M  V30 17 C -1.1347 -1.0468 -1.6343 0
M  V30 18 C -6.2939 -0.1837 -4.4142 0
M  V30 19 C -6.9326 0.4912 -2.1884 0
M  V30 20 N -0.2425 -1.0141 -0.4704 0
M  V30 21 C -0.4019 -1.5894 -2.8826 0
M  V30 22 C -7.2205 -1.2267 -4.3635 0
M  V30 23 C -7.8582 -0.5525 -2.1386 0
M  V30 24 C -0.7062 -1.2478 0.8144 0
M  V30 25 C 0.8746 -0.8696 -3.2586 0
M  V30 26 C -7.9978 -1.4148 -3.2233 0
M  V30 27 O -1.8863 -1.4981 1.0513 0
M  V30 28 C 0.3339 -1.0035 1.93 0
M  V30 29 C 0.8407 0.2838 -4.0515 0
M  V30 30 C 2.1163 -1.3511 -2.817 0
M  V30 31 N 1.5596 -1.7103 1.5388 0
M  V30 32 C 0.5694 0.5193 2.1193 0
M  V30 33 C 2.0201 0.9569 -4.3737 0
M  V30 34 C 3.2951 -0.678 -3.1397 0
M  V30 35 C 2.378 -2.3115 2.4538 0
M  V30 36 C -0.7266 1.2368 2.5234 0
M  V30 37 C 1.6444 0.8259 3.1678 0
M  V30 38 C 3.2458 0.4787 -3.9145 0
M  V30 39 O 2.134 -2.2779 3.6575 0
M  V30 40 N 3.5083 -2.9169 1.9396 0
M  V30 41 C 4.5064 -3.3962 2.894 0
M  V30 42 C 3.8998 -2.9169 0.538 0
M  V30 43 C 5.5455 -2.3356 3.0983 0
M  V30 44 N 6.6688 -2.3198 2.2788 0
M  V30 45 C 5.4986 -1.3158 4.0307 0
M  V30 46 C 7.4502 -1.3089 2.6003 0
M  V30 47 S 6.8836 -0.3228 3.8912 0
M  V30 48 C 8.7536 -0.9902 1.9152 0
M  V30 49 C 9.738 -2.1493 2.0742 0
M  V30 50 C 8.5165 -0.6832 0.436 0
M  V30 51 H -6.8334 3.3084 5.9001 0
M  V30 52 H -3.1889 3.3948 3.8643 0
M  V30 53 H -5.5638 4.8498 1.0692 0
M  V30 54 H -3.8252 4.7416 1.4759 0
M  V30 55 H -4.5095 1.0924 -0.4389 0
M  V30 56 H -3.205 2.4663 -2.7088 0
M  V30 57 H -3.7281 -0.5223 -2.2518 0
M  V30 58 H -4.7392 1.8919 -4.4057 0
M  V30 59 H -5.6314 2.7384 -3.1674 0
M  V30 60 H -3.5558 -0.314 -4.3851 0
M  V30 61 H -1.0976 1.0552 -2.2111 0
M  V30 62 H -2.0276 0.708 -0.7738 0
M  V30 63 H -1.9277 -1.7692 -1.4001 0
M  V30 64 H -5.7161 -0.0425 -5.3249 0
M  V30 65 H -6.8614 1.1666 -1.339 0
M  V30 66 H 0.6614 -0.5731 -0.5911 0
M  V30 67 H -0.1483 -2.6424 -2.6944 0
M  V30 68 H -1.069 -1.6198 -3.7501 0
M  V30 69 H -7.3433 -1.8877 -5.2177 0
M  V30 70 H -8.4771 -0.6873 -1.2548 0
M  V30 71 H -8.722 -2.2243 -3.1847 0
M  V30 72 H -0.0538 -1.4519 2.8525 0
M  V30 73 H -0.1073 0.6659 -4.4266 0
M  V30 74 H 2.1708 -2.2634 -2.2285 0
M  V30 75 H 1.7075 -1.8922 0.5624 0
M  V30 76 H 0.9075 0.9553 1.1701 0
M  V30 77 H 1.9812 1.8532 -4.9877 0
M  V30 78 H 4.2535 -1.0587 -2.7962 0
M  V30 79 H -1.4893 1.161 1.7426 0
M  V30 80 H -1.1399 0.8167 3.4468 0
M  V30 81 H -0.5452 2.3044 2.6904 0
M  V30 82 H 2.6251 0.456 2.8543 0
M  V30 83 H 1.3953 0.3776 4.1353 0
M  V30 84 H 1.7454 1.9069 3.3159 0
M  V30 85 H 4.1631 1.0028 -4.1705 0
M  V30 86 H 4.041 -3.6515 3.8527 0
M  V30 87 H 4.959 -4.3149 2.5043 0
M  V30 88 H 4.1888 -1.9017 0.2506 0
M  V30 89 H 4.7335 -3.6036 0.3659 0
M  V30 90 H 3.0596 -3.2423 -0.0808 0
M  V30 91 H 4.7234 -1.1143 4.7579 0
M  V30 92 H 9.2078 -0.1015 2.3721 0
M  V30 93 H 10.6991 -1.9084 1.6077 0
M  V30 94 H 9.9225 -2.3636 3.1329 0
M  V30 95 H 9.359 -3.0675 1.611 0
M  V30 96 H 7.8234 0.1571 0.3169 0
M  V30 97 H 8.0883 -1.5433 -0.0914 0
M  V30 98 H 9.4558 -0.417 -0.0602 0
M  V30 END ATOM
M  V30 BEGIN BOND
M  V30 1 1 1 2
M  V30 2 1 1 3
M  V30 3 2 2 4
M  V30 4 1 2 5
M  V30 5 2 3 6
M  V30 6 1 5 7
M  V30 7 1 7 8
M  V30 8 2 8 9
M  V30 9 1 8 10
M  V30 10 1 10 11
M  V30 11 1 11 12
M  V30 12 1 11 13
M  V30 13 1 12 14
M  V30 14 1 12 15
M  V30 15 1 13 16
M  V30 16 1 15 17
M  V30 17 2 16 18
M  V30 18 1 16 19
M  V30 19 1 17 20
M  V30 20 1 17 21
M  V30 21 1 18 22
M  V30 22 2 19 23
M  V30 23 1 20 24
M  V30 24 1 21 25
M  V30 25 2 22 26
M  V30 26 2 24 27
M  V30 27 1 24 28
M  V30 28 2 25 29
M  V30 29 1 25 30
M  V30 30 1 28 31
M  V30 31 1 28 32
M  V30 32 1 29 33
M  V30 33 2 30 34
M  V30 34 1 31 35
M  V30 35 1 32 36
M  V30 36 1 32 37
M  V30 37 2 33 38
M  V30 38 2 35 39
M  V30 39 1 35 40
M  V30 40 1 40 41
M  V30 41 1 40 42
M  V30 42 1 41 43
M  V30 43 1 43 44
M  V30 44 2 43 45
M  V30 45 2 44 46
M  V30 46 1 45 47
M  V30 47 1 46 48
M  V30 48 1 48 49
M  V30 49 1 48 50
M  V30 50 1 4 6
M  V30 51 1 23 26
M  V30 52 1 34 38
M  V30 53 1 46 47
M  V30 54 1 3 51
M  V30 55 1 4 52
M  V30 56 1 5 53
M  V30 57 1 5 54
M  V30 58 1 10 55
M  V30 59 1 11 56
M  V30 60 1 12 57
M  V30 61 1 13 58
M  V30 62 1 13 59
M  V30 63 1 14 60
M  V30 64 1 15 61
M  V30 65 1 15 62
M  V30 66 1 17 63
M  V30 67 1 18 64
M  V30 68 1 19 65
M  V30 69 1 20 66
M  V30 70 1 21 67
M  V30 71 1 21 68
M  V30 72 1 22 69
M  V30 73 1 23 70
M  V30 74 1 26 71
M  V30 75 1 28 72
M  V30 76 1 29 73
M  V30 77 1 30 74
M  V30 78 1 31 75
M  V30 79 1 32 76
M  V30 80 1 33 77
M  V30 81 1 34 78
M  V30 82 1 36 79
M  V30 83 1 36 80
M  V30 84 1 36 81
M  V30 85 1 37 82
M  V30 86 1 37 83
M  V30 87 1 37 84
M  V30 88 1 38 85
M  V30 89 1 41 86
M  V30 90 1 41 87
M  V30 91 1 42 88
M  V30 92 1 42 89
M  V30 93 1 42 90
M  V30 94 1 45 91
M  V30 95 1 48 92
M  V30 96 1 49 93
M  V30 97 1 49 94
M  V30 98 1 49 95
M  V30 99 1 50 96
M  V30 100 1 50 97
M  V30 101 1 50 98
M  V30 END BOND
M  V30 END CTAB
M  END
>  <level_0>
209

>  <index>
209

>  <NO.>
210

>  <Name>
n-[3-hydroxy-5-[[3-methyl-2-[[[methyl-[(2-propan-2-yl-4-thiazolyl)methyl]amino]-oxomethyl]amino]-1-oxobutyl]amino]-1,6-diphenylhexan-2-yl]carbamic acid 5-thiazolylmethyl ester

>  <SMILES>
CC(C)c1nc(CN(C)C(=O)NC(C(=O)NC(Cc2ccccc2)CC(O)C(Cc2ccccc2)NC(=O)OCc2cncs2)C(C)C)cs1

>  <logBB>
-0.7

>  <Class>
1

>  <MW>
720.31

>  <nHBAcc>
9

>  <nHBDon>
4

>  <SLogP>
5.91

>  <TopoPSA>
145.78

>  <MMFF94 Energy>
-39.9

$$$$
CCCCCCCCCCCCCCCCCCOCC(COP(=O)(O)OCC[N+](C)(C)C)OC
Actelion Java MolfileCreator 2.0

  0  0  0  0  0  0              0 V3000
M  V30 BEGIN CTAB
M  V30 COUNTS 94 93 0 0 0
M  V30 BEGIN ATOM
M  V30 1 P -8.5352 -4.143 -4.3779 0
M  V30 2 O -8.5438 -5.1757 -5.4505 0
M  V30 3 O -7.2578 -3.1755 -4.3582 0
M  V30 4 O -8.6453 -4.7193 -2.881 0
M  V30 5 O -9.7643 -3.126 -4.4813 0
M  V30 6 C -6.0081 -3.7674 -4.6979 0
M  V30 7 C -8.8421 -3.7932 -1.8237 0
M  V30 8 C -4.8437 -3.0001 -4.0598 0
M  V30 9 C -8.8614 -4.5307 -0.4786 0
M  V30 10 O -4.8848 -3.2707 -2.6354 0
M  V30 11 C -4.9415 -1.4964 -4.3751 0
M  V30 12 N -7.4761 -5.0012 0.0319 0 CHG=1
M  V30 13 C -3.7143 -2.8134 -1.9594 0
M  V30 14 O -3.6608 -0.8874 -4.1735 0
M  V30 15 C -6.7612 -5.8687 -0.9985 0
M  V30 16 C -7.6984 -5.8404 1.2896 0
M  V30 17 C -6.5943 -3.8144 0.3931 0
M  V30 18 C -3.6817 0.5075 -4.4767 0
M  V30 19 C -2.2943 1.096 -4.2388 0
M  V30 20 C -1.8669 0.9977 -2.7715 0
M  V30 21 C -0.4944 1.6355 -2.549 0
M  V30 22 C -0.0658 1.5347 -1.0841 0
M  V30 23 C 1.3073 2.1725 -0.8606 0
M  V30 24 C 1.7346 2.0661 0.6049 0
M  V30 25 C 3.0477 2.7933 0.9135 0
M  V30 26 C 4.2673 2.153 0.2455 0
M  V30 27 C 5.5803 2.8801 0.5542 0
M  V30 28 C 6.0077 2.7737 2.0198 0
M  V30 29 C 7.381 3.4111 2.2435 0
M  V30 30 C 7.8095 3.31 3.7084 0
M  V30 31 C 9.1821 3.9466 3.9317 0
M  V30 32 C 9.6105 3.8456 5.3965 0
M  V30 33 C 10.9832 4.4821 5.6199 0
M  V30 34 C 11.4112 4.3811 7.0837 0
M  V30 35 C 12.7754 5.0128 7.31 0
M  V30 36 H -10.0439 -3.0187 -5.4115 0
M  V30 37 H -5.9928 -4.8077 -4.3535 0
M  V30 38 H -5.9174 -3.7577 -5.789 0
M  V30 39 H -8.0809 -3.0105 -1.857 0
M  V30 40 H -9.8198 -3.3198 -1.9617 0
M  V30 41 H -3.9064 -3.4143 -4.452 0
M  V30 42 H -9.2692 -3.8789 0.3022 0
M  V30 43 H -9.4819 -5.4314 -0.5549 0
M  V30 44 H -5.2314 -1.3473 -5.4213 0
M  V30 45 H -5.6712 -1.0129 -3.7155 0
M  V30 46 H -3.7609 -1.7323 -1.8081 0
M  V30 47 H -3.6919 -3.2852 -0.9731 0
M  V30 48 H -2.8038 -3.096 -2.4957 0
M  V30 49 H -5.8653 -6.2893 -0.5314 0
M  V30 50 H -7.4387 -6.6696 -1.3075 0
M  V30 51 H -6.4682 -5.2479 -1.8456 0
M  V30 52 H -8.3027 -6.7124 1.0225 0
M  V30 53 H -6.7243 -6.1558 1.6755 0
M  V30 54 H -8.2191 -5.2242 2.0287 0
M  V30 55 H -5.648 -4.1941 0.79 0
M  V30 56 H -6.4127 -3.2169 -0.5002 0
M  V30 57 H -7.1116 -3.2175 1.15 0
M  V30 58 H -4.4224 1.0124 -3.8459 0
M  V30 59 H -3.9599 0.6451 -5.5275 0
M  V30 60 H -1.5638 0.5601 -4.8568 0
M  V30 61 H -2.2921 2.1454 -4.5552 0
M  V30 62 H -1.8324 -0.0535 -2.4627 0
M  V30 63 H -2.6107 1.4967 -2.1386 0
M  V30 64 H -0.5255 2.6894 -2.8509 0
M  V30 65 H 0.2486 1.1385 -3.1843 0
M  V30 66 H -0.0345 0.4809 -0.782 0
M  V30 67 H -0.8097 2.0313 -0.4494 0
M  V30 68 H 1.2745 3.2273 -1.1586 0
M  V30 69 H 2.0406 1.6746 -1.5041 0
M  V30 70 H 1.8221 1.0109 0.8907 0
M  V30 71 H 0.9495 2.4998 1.2369 0
M  V30 72 H 3.1802 2.7868 2.0011 0
M  V30 73 H 2.9664 3.8439 0.61 0
M  V30 74 H 4.1347 2.1596 -0.8419 0
M  V30 75 H 4.3484 1.1025 0.5491 0
M  V30 76 H 5.4928 3.9354 0.2686 0
M  V30 77 H 6.3654 2.4464 -0.0776 0
M  V30 78 H 6.04 1.7189 2.318 0
M  V30 79 H 5.2743 3.2718 2.6633 0
M  V30 80 H 7.3499 4.4651 1.9415 0
M  V30 81 H 8.1247 2.9144 1.6087 0
M  V30 82 H 7.8397 2.2561 4.0103 0
M  V30 83 H 7.0664 3.8072 4.3437 0
M  V30 84 H 9.1517 5.0005 3.6298 0
M  V30 85 H 9.9252 3.4495 3.2966 0
M  V30 86 H 9.6408 2.7917 5.6986 0
M  V30 87 H 8.8674 4.3428 6.0318 0
M  V30 88 H 10.953 5.5361 5.3179 0
M  V30 89 H 11.7264 3.9852 4.9847 0
M  V30 90 H 10.6735 4.8802 7.7229 0
M  V30 91 H 11.4469 3.3292 7.3897 0
M  V30 92 H 13.0617 4.9295 8.3631 0
M  V30 93 H 13.5427 4.515 6.7089 0
M  V30 94 H 12.7651 6.0746 7.0439 0
M  V30 END ATOM
M  V30 BEGIN BOND
M  V30 1 2 1 2
M  V30 2 1 1 3
M  V30 3 1 1 4
M  V30 4 1 1 5
M  V30 5 1 3 6
M  V30 6 1 4 7
M  V30 7 1 6 8
M  V30 8 1 7 9
M  V30 9 1 8 10
M  V30 10 1 8 11
M  V30 11 1 9 12
M  V30 12 1 10 13
M  V30 13 1 11 14
M  V30 14 1 12 15
M  V30 15 1 12 16
M  V30 16 1 12 17
M  V30 17 1 14 18
M  V30 18 1 18 19
M  V30 19 1 19 20
M  V30 20 1 20 21
M  V30 21 1 21 22
M  V30 22 1 22 23
M  V30 23 1 23 24
M  V30 24 1 24 25
M  V30 25 1 25 26
M  V30 26 1 26 27
M  V30 27 1 27 28
M  V30 28 1 28 29
M  V30 29 1 29 30
M  V30 30 1 30 31
M  V30 31 1 31 32
M  V30 32 1 32 33
M  V30 33 1 33 34
M  V30 34 1 34 35
M  V30 35 1 5 36
M  V30 36 1 6 37
M  V30 37 1 6 38
M  V30 38 1 7 39
M  V30 39 1 7 40
M  V30 40 1 8 41
M  V30 41 1 9 42
M  V30 42 1 9 43
M  V30 43 1 11 44
M  V30 44 1 11 45
M  V30 45 1 13 46
M  V30 46 1 13 47
M  V30 47 1 13 48
M  V30 48 1 15 49
M  V30 49 1 15 50
M  V30 50 1 15 51
M  V30 51 1 16 52
M  V30 52 1 16 53
M  V30 53 1 16 54
M  V30 54 1 17 55
M  V30 55 1 17 56
M  V30 56 1 17 57
M  V30 57 1 18 58
M  V30 58 1 18 59
M  V30 59 1 19 60
M  V30 60 1 19 61
M  V30 61 1 20 62
M  V30 62 1 20 63
M  V30 63 1 21 64
M  V30 64 1 21 65
M  V30 65 1 22 66
M  V30 66 1 22 67
M  V30 67 1 23 68
M  V30 68 1 23 69
M  V30 69 1 24 70
M  V30 70 1 24 71
M  V30 71 1 25 72
M  V30 72 1 25 73
M  V30 73 1 26 74
M  V30 74 1 26 75
M  V30 75 1 27 76
M  V30 76 1 27 77
M  V30 77 1 28 78
M  V30 78 1 28 79
M  V30 79 1 29 80
M  V30 80 1 29 81
M  V30 81 1 30 82
M  V30 82 1 30 83
M  V30 83 1 31 84
M  V30 84 1 31 85
M  V30 85 1 32 86
M  V30 86 1 32 87
M  V30 87 1 33 88
M  V30 88 1 33 89
M  V30 89 1 34 90
M  V30 90 1 34 91
M  V30 91 1 35 92
M  V30 92 1 35 93
M  V30 93 1 35 94
M  V30 END BOND
M  V30 END CTAB
M  END
>  <level_0>
212

>  <index>
212

>  <NO.>
213

>  <Name>
2-o-methyl-paf (c)

>  <SMILES>
CCCCCCCCCCCCCCCCCCOCC(COP(=O)(O)OCC[N+](C)(C)C)OC

>  <logBB>
-0.7

>  <Class>
1

>  <MW>
524.41

>  <nHBAcc>
5

>  <nHBDon>
1

>  <SLogP>
7.12

>  <TopoPSA>
74.22

>  <MMFF94 Energy>
-80.4

$$$$
CC[C@@H](C)n1ncn(-c2ccc(N3CCN(c4ccc(OC[C@@H]5CO[C@@](CSc6nncn6C)(c6ccc(Cl)cc6)O5)cc4)CC3)cc2)c1=O
Actelion Java MolfileCreator 2.0

  0  0  0  0  0  0              0 V3000
M  V30 BEGIN CTAB
M  V30 COUNTS 91 97 0 0 0
M  V30 BEGIN ATOM
M  V30 1 Cl 3.8822 -3.8822 -12.0069 0
M  V30 2 C 2.9497 -4.1382 -10.5844 0
M  V30 3 C 3.543 -4.695 -9.4562 0
M  V30 4 C 1.6004 -3.796 -10.5725 0
M  V30 5 C 2.7783 -4.9167 -8.3077 0
M  V30 6 C 0.8348 -4.0248 -9.4256 0
M  V30 7 C 1.4085 -4.5964 -8.2755 0
M  V30 8 C 0.5782 -4.8904 -7.0263 0 CFG=1
M  V30 9 O 1.2579 -4.2778 -5.9002 0
M  V30 10 O -0.7364 -4.2956 -7.138 0
M  V30 11 C 0.4265 -6.4 -6.7067 0
M  V30 12 C 0.5175 -3.0844 -5.6319 0 CFG=1
M  V30 13 C -0.8941 -3.4858 -5.9718 0
M  V30 14 S -0.3406 -7.407 -8.0335 0
M  V30 15 C 0.6962 -2.6316 -4.1898 0
M  V30 16 C 1.0716 -7.908 -8.8916 0
M  V30 17 O -0.1163 -1.4815 -3.9634 0
M  V30 18 N 2.2229 -8.2566 -8.3644 0
M  V30 19 N 1.1493 -7.9832 -10.2507 0
M  V30 20 C -0.097 -0.9459 -2.707 0
M  V30 21 N 3.0824 -8.5545 -9.3989 0
M  V30 22 C 2.4237 -8.3825 -10.5228 0
M  V30 23 C 0.1307 -7.6873 -11.2203 0
M  V30 24 C 0.6656 -1.3897 -1.6334 0
M  V30 25 C -0.9336 0.1506 -2.5228 0
M  V30 26 C 0.5825 -0.7395 -0.3914 0
M  V30 27 C -1.0081 0.7939 -1.2798 0
M  V30 28 C -0.2534 0.3676 -0.1777 0
M  V30 29 N -0.3276 1.0021 1.0494 0
M  V30 30 C -0.799 2.3922 1.1736 0
M  V30 31 C 0.0625 0.325 2.2973 0
M  V30 32 C -0.215 3.0994 2.4199 0
M  V30 33 C -0.6753 0.9005 3.5297 0
M  V30 34 N -0.4875 2.3553 3.6625 0
M  V30 35 C -0.5671 2.9928 4.8869 0
M  V30 36 C 0.0254 4.2431 5.1124 0
M  V30 37 C -1.2481 2.4277 5.9745 0
M  V30 38 C -0.0528 4.8954 6.3527 0
M  V30 39 C -1.3343 3.0713 7.2194 0
M  V30 40 C -0.7336 4.3157 7.4233 0
M  V30 41 N -0.8077 4.9587 8.6715 0
M  V30 42 C -0.7819 6.3182 8.9202 0
M  V30 43 C -0.9325 4.3777 9.8843 0
M  V30 44 O -0.7077 7.2469 8.129 0
M  V30 45 N -0.8843 6.4316 10.318 0
M  V30 46 N -0.9922 5.1871 10.8942 0
M  V30 47 C -0.9706 7.6757 11.0644 0 CFG=1
M  V30 48 C -2.4138 8.2114 11.1121 0
M  V30 49 C -0.3295 7.5703 12.4478 0
M  V30 50 C -3.3982 7.3491 11.8913 0
M  V30 51 H 4.5937 -4.9729 -9.4614 0
M  V30 52 H 1.1362 -3.354 -11.45 0
M  V30 53 H 3.2564 -5.3678 -7.4388 0
M  V30 54 H -0.221 -3.7593 -9.4403 0
M  V30 55 H 1.3846 -6.8332 -6.3984 0
M  V30 56 H -0.2324 -6.5032 -5.8357 0
M  V30 57 H 0.8608 -2.3025 -6.3214 0
M  V30 58 H -1.351 -4.1062 -5.1928 0
M  V30 59 H -1.5495 -2.6372 -6.1851 0
M  V30 60 H 0.4134 -3.447 -3.5114 0
M  V30 61 H 1.7547 -2.3953 -4.0227 0
M  V30 62 H 2.8157 -8.5286 -11.5193 0
M  V30 63 H -0.7099 -8.3683 -11.0659 0
M  V30 64 H 0.5328 -7.8276 -12.2272 0
M  V30 65 H -0.1853 -6.6485 -11.0978 0
M  V30 66 H 1.3438 -2.2319 -1.7177 0
M  V30 67 H -1.541 0.5132 -3.3482 0
M  V30 68 H 1.2171 -1.1104 0.4089 0
M  V30 69 H -1.6955 1.6302 -1.1896 0
M  V30 70 H -1.8945 2.3921 1.2313 0
M  V30 71 H -0.5038 2.9835 0.2983 0
M  V30 72 H -0.1729 -0.745 2.25 0
M  V30 73 H 1.1456 0.4301 2.4353 0
M  V30 74 H -0.6591 4.1015 2.4605 0
M  V30 75 H 0.8699 3.2115 2.3041 0
M  V30 76 H -1.7482 0.6867 3.4484 0
M  V30 77 H -0.2893 0.3764 4.4124 0
M  V30 78 H 0.5896 4.737 4.3255 0
M  V30 79 H -1.7599 1.4749 5.8667 0
M  V30 80 H 0.4428 5.8582 6.4562 0
M  V30 81 H -1.9051 2.5824 8.0039 0
M  V30 82 H -0.9687 3.284 9.9628 0
M  V30 83 H -0.3898 8.4117 10.4927 0
M  V30 84 H -2.7912 8.3258 10.0883 0
M  V30 85 H -2.406 9.2151 11.5551 0
M  V30 86 H -0.8187 6.8179 13.0746 0
M  V30 87 H -0.3744 8.5311 12.9712 0
M  V30 88 H 0.7242 7.2838 12.3598 0
M  V30 89 H -3.483 6.3473 11.4609 0
M  V30 90 H -4.3934 7.8054 11.8641 0
M  V30 91 H -3.1081 7.2547 12.9416 0
M  V30 END ATOM
M  V30 BEGIN BOND
M  V30 1 1 1 2
M  V30 2 2 2 3
M  V30 3 1 2 4
M  V30 4 1 3 5
M  V30 5 2 4 6
M  V30 6 2 5 7
M  V30 7 1 7 8
M  V30 8 1 8 9
M  V30 9 1 8 10
M  V30 10 1 8 11
M  V30 11 1 9 12
M  V30 12 1 10 13
M  V30 13 1 11 14
M  V30 14 1 12 15
M  V30 15 1 14 16
M  V30 16 1 15 17
M  V30 17 2 16 18
M  V30 18 1 16 19
M  V30 19 1 17 20
M  V30 20 1 18 21
M  V30 21 1 19 22
M  V30 22 1 19 23
M  V30 23 2 20 24
M  V30 24 1 20 25
M  V30 25 1 24 26
M  V30 26 2 25 27
M  V30 27 2 26 28
M  V30 28 1 28 29
M  V30 29 1 29 30
M  V30 30 1 29 31
M  V30 31 1 30 32
M  V30 32 1 31 33
M  V30 33 1 32 34
M  V30 34 1 34 35
M  V30 35 2 35 36
M  V30 36 1 35 37
M  V30 37 1 36 38
M  V30 38 2 37 39
M  V30 39 2 38 40
M  V30 40 1 40 41
M  V30 41 1 41 42
M  V30 42 1 41 43
M  V30 43 2 42 44
M  V30 44 1 42 45
M  V30 45 2 43 46
M  V30 46 1 45 47
M  V30 47 1 47 48
M  V30 48 1 47 49
M  V30 49 1 48 50
M  V30 50 1 6 7
M  V30 51 1 12 13
M  V30 52 2 21 22
M  V30 53 1 27 28
M  V30 54 1 33 34
M  V30 55 1 39 40
M  V30 56 1 45 46
M  V30 57 1 3 51
M  V30 58 1 4 52
M  V30 59 1 5 53
M  V30 60 1 6 54
M  V30 61 1 11 55
M  V30 62 1 11 56
M  V30 63 1 12 57
M  V30 64 1 13 58
M  V30 65 1 13 59
M  V30 66 1 15 60
M  V30 67 1 15 61
M  V30 68 1 22 62
M  V30 69 1 23 63
M  V30 70 1 23 64
M  V30 71 1 23 65
M  V30 72 1 24 66
M  V30 73 1 25 67
M  V30 74 1 26 68
M  V30 75 1 27 69
M  V30 76 1 30 70
M  V30 77 1 30 71
M  V30 78 1 31 72
M  V30 79 1 31 73
M  V30 80 1 32 74
M  V30 81 1 32 75
M  V30 82 1 33 76
M  V30 83 1 33 77
M  V30 84 1 36 78
M  V30 85 1 37 79
M  V30 86 1 38 80
M  V30 87 1 39 81
M  V30 88 1 43 82
M  V30 89 1 47 83
M  V30 90 1 48 84
M  V30 91 1 48 85
M  V30 92 1 49 86
M  V30 93 1 49 87
M  V30 94 1 49 88
M  V30 95 1 50 89
M  V30 96 1 50 90
M  V30 97 1 50 91
M  V30 END BOND
M  V30 BEGIN COLLECTION
M  V30 MDLV30/STEABS ATOMS=(3 8 12 47)
M  V30 END COLLECTION
M  V30 END CTAB
M  END
>  <level_0>
213

>  <index>
213

>  <NO.>
214

>  <Name>
mitratapid

>  <SMILES>
CC[C@@H](C)n1ncn(-c2ccc(N3CCN(c4ccc(OC[C@@H]5CO[C@@](CSc6nncn6C)(c6ccc(Cl)cc6)O5)cc4)CC3)cc2)c1=O

>  <logBB>
-0.7

>  <Class>
1

>  <MW>
716.27

>  <nHBAcc>
10

>  <nHBDon>
0

>  <SLogP>
5.55

>  <TopoPSA>
104.7

>  <MMFF94 Energy>
191.31

$$$$
COc1ccc(CCN(C)CCCC(C#N)(c2ccc(OC)c(OC)c2)C(C)C)cc1OC
Actelion Java MolfileCreator 2.0

  0  0  0  0  0  0              0 V3000
M  V30 BEGIN CTAB
M  V30 COUNTS 71 72 0 0 0
M  V30 BEGIN ATOM
M  V30 1 O 1.9673 2.0461 4.8057 0
M  V30 2 C 1.9528 2.9429 3.7651 0
M  V30 3 C 1.9117 0.6628 4.4909 0
M  V30 4 C 1.8238 4.2969 4.1203 0
M  V30 5 C 2.0745 2.5854 2.413 0
M  V30 6 O 1.7159 4.5648 5.4618 0
M  V30 7 C 1.8188 5.2657 3.1169 0
M  V30 8 C 2.0437 3.5488 1.3839 0
M  V30 9 C 1.5403 5.9197 5.8506 0
M  V30 10 C 1.9322 4.8974 1.7716 0
M  V30 11 C 2.1957 3.1703 -0.1164 0 CFG=1
M  V30 12 C 1.3319 4.066 -0.9538 0
M  V30 13 C 3.7063 3.4301 -0.5366 0
M  V30 14 C 1.7656 1.6978 -0.4453 0
M  V30 15 N 0.6794 4.7669 -1.6115 0
M  V30 16 C 4.7356 2.6411 0.2909 0
M  V30 17 C 3.9987 3.1634 -2.0253 0
M  V30 18 C 0.2887 1.3566 -0.1498 0
M  V30 19 C 0.0238 -0.1434 -0.3596 0
M  V30 20 N -1.4012 -0.5058 -0.2401 0
M  V30 21 C -1.601 -1.8924 -0.7191 0
M  V30 22 C -1.8838 -0.3473 1.1359 0
M  V30 23 C -3.0793 -2.2638 -0.9342 0
M  V30 24 C -3.2203 -3.6289 -1.5692 0
M  V30 25 C -3.2508 -3.762 -2.9656 0
M  V30 26 C -3.2903 -4.7767 -0.7745 0
M  V30 27 C -3.3587 -5.0238 -3.5641 0
M  V30 28 C -3.3972 -6.0399 -1.3618 0
M  V30 29 O -3.3936 -5.2383 -4.9204 0
M  V30 30 C -3.4324 -6.1743 -2.7535 0
M  V30 31 C -3.3899 -4.0989 -5.7681 0
M  V30 32 O -3.533 -7.3737 -3.4149 0
M  V30 33 C -3.6526 -8.5508 -2.6299 0
M  V30 34 H 1.0302 0.4261 3.8854 0
M  V30 35 H 1.8272 0.1087 5.4308 0
M  V30 36 H 2.832 0.3367 3.9955 0
M  V30 37 H 2.2114 1.5418 2.1575 0
M  V30 38 H 1.7303 6.3233 3.3439 0
M  V30 39 H 2.4103 6.5249 5.5755 0
M  V30 40 H 1.4497 5.9457 6.941 0
M  V30 41 H 0.6185 6.3361 5.431 0
M  V30 42 H 1.9336 5.6975 1.0313 0
M  V30 43 H 3.9231 4.4961 -0.3705 0
M  V30 44 H 2.4082 0.9846 0.0828 0
M  V30 45 H 1.9231 1.5016 -1.514 0
M  V30 46 H 4.6952 2.9054 1.3512 0
M  V30 47 H 4.5931 1.5606 0.1963 0
M  V30 48 H 5.7531 2.868 -0.0478 0
M  V30 49 H 5.015 3.4897 -2.275 0
M  V30 50 H 3.9331 2.0984 -2.2689 0
M  V30 51 H 3.3186 3.7117 -2.6832 0
M  V30 52 H 0.0359 1.6405 0.8743 0
M  V30 53 H -0.3648 1.9323 -0.8159 0
M  V30 54 H 0.3704 -0.3911 -1.3715 0
M  V30 55 H 0.6328 -0.7327 0.3385 0
M  V30 56 H -1.1243 -2.6085 -0.036 0
M  V30 57 H -1.0948 -2.0064 -1.6875 0
M  V30 58 H -2.9488 -0.5855 1.216 0
M  V30 59 H -1.3346 -0.9833 1.8394 0
M  V30 60 H -1.8007 0.6907 1.4718 0
M  V30 61 H -3.6308 -2.2633 0.013 0
M  V30 62 H -3.5679 -1.5156 -1.5717 0
M  V30 63 H -3.1854 -2.8605 -3.5669 0
M  V30 64 H -3.2629 -4.6971 0.3102 0
M  V30 65 H -3.4494 -6.9003 -0.7035 0
M  V30 66 H -4.2595 -3.4606 -5.5787 0
M  V30 67 H -3.4563 -4.4511 -6.802 0
M  V30 68 H -2.4556 -3.5367 -5.6687 0
M  V30 69 H -2.7583 -8.71 -2.0186 0
M  V30 70 H -3.7428 -9.4008 -3.3131 0
M  V30 71 H -4.5563 -8.5247 -2.0117 0
M  V30 END ATOM
M  V30 BEGIN BOND
M  V30 1 1 1 2
M  V30 2 1 1 3
M  V30 3 2 2 4
M  V30 4 1 2 5
M  V30 5 1 4 6
M  V30 6 1 4 7
M  V30 7 2 5 8
M  V30 8 1 6 9
M  V30 9 2 7 10
M  V30 10 1 8 11
M  V30 11 1 11 12
M  V30 12 1 11 13
M  V30 13 1 11 14
M  V30 14 3 12 15
M  V30 15 1 13 16
M  V30 16 1 13 17
M  V30 17 1 14 18
M  V30 18 1 18 19
M  V30 19 1 19 20
M  V30 20 1 20 21
M  V30 21 1 20 22
M  V30 22 1 21 23
M  V30 23 1 23 24
M  V30 24 2 24 25
M  V30 25 1 24 26
M  V30 26 1 25 27
M  V30 27 2 26 28
M  V30 28 1 27 29
M  V30 29 2 27 30
M  V30 30 1 29 31
M  V30 31 1 30 32
M  V30 32 1 32 33
M  V30 33 1 8 10
M  V30 34 1 28 30
M  V30 35 1 3 34
M  V30 36 1 3 35
M  V30 37 1 3 36
M  V30 38 1 5 37
M  V30 39 1 7 38
M  V30 40 1 9 39
M  V30 41 1 9 40
M  V30 42 1 9 41
M  V30 43 1 10 42
M  V30 44 1 13 43
M  V30 45 1 14 44
M  V30 46 1 14 45
M  V30 47 1 16 46
M  V30 48 1 16 47
M  V30 49 1 16 48
M  V30 50 1 17 49
M  V30 51 1 17 50
M  V30 52 1 17 51
M  V30 53 1 18 52
M  V30 54 1 18 53
M  V30 55 1 19 54
M  V30 56 1 19 55
M  V30 57 1 21 56
M  V30 58 1 21 57
M  V30 59 1 22 58
M  V30 60 1 22 59
M  V30 61 1 22 60
M  V30 62 1 23 61
M  V30 63 1 23 62
M  V30 64 1 25 63
M  V30 65 1 26 64
M  V30 66 1 28 65
M  V30 67 1 31 66
M  V30 68 1 31 67
M  V30 69 1 31 68
M  V30 70 1 33 69
M  V30 71 1 33 70
M  V30 72 1 33 71
M  V30 END BOND
M  V30 BEGIN COLLECTION
M  V30 MDLV30/STERAC1 ATOMS=(1 11)
M  V30 END COLLECTION
M  V30 END CTAB
M  END
>  <level_0>
214

>  <index>
214

>  <NO.>
215

>  <Name>
verapamil

>  <SMILES>
COc1ccc(CCN(C)CCCC(C#N)(c2ccc(OC)c(OC)c2)C(C)C)cc1OC

>  <logBB>
-0.7

>  <Class>
1

>  <MW>
454.28

>  <nHBAcc>
6

>  <nHBDon>
0

>  <SLogP>
5.09

>  <TopoPSA>
63.95

>  <MMFF94 Energy>
141.29

$$$$
O=C1CC=[N+](C2CC(F)C(CO)O2)C(=O)N1
Actelion Java MolfileCreator 2.0

  0  0  0  0  0  0              0 V3000
M  V30 BEGIN CTAB
M  V30 COUNTS 28 29 0 0 0
M  V30 BEGIN ATOM
M  V30 1 F 0.2405 0.8018 1.6845 0
M  V30 2 C 0.9021 1.5309 0.732 0
M  V30 3 C -0.118 2.2079 -0.1767 0
M  V30 4 C 1.5332 0.5145 -0.1802 0
M  V30 5 O -0.4861 1.2221 -1.179 0
M  V30 6 C 0.4303 3.4438 -0.8941 0
M  V30 7 C 0.3192 0.053 -0.9827 0
M  V30 8 O 0.9666 4.3589 0.0451 0
M  V30 9 N -0.2768 -1.1691 -0.3635 0 CHG=1
M  V30 10 C -1.6217 -1.0431 0.4395 0
M  V30 11 C 0.2586 -2.3326 -0.4519 0
M  V30 12 O -2.1844 0.0363 0.4231 0
M  V30 13 N -2.1146 -2.1299 1.0843 0
M  V30 14 C -0.341 -3.5353 0.1882 0
M  V30 15 C -1.5692 -3.3694 1.0283 0
M  V30 16 O -2.0753 -4.3093 1.6276 0
M  V30 17 H 1.6053 2.1931 1.2406 0
M  V30 18 H -1.0125 2.4781 0.3947 0
M  V30 19 H 2.0483 -0.2851 0.3601 0
M  V30 20 H 2.2525 1.0104 -0.8425 0
M  V30 21 H -0.3725 3.9312 -1.4582 0
M  V30 22 H 1.2118 3.1731 -1.6119 0
M  V30 23 H 0.6452 -0.2658 -1.9797 0
M  V30 24 H 1.1176 5.2045 -0.4179 0
M  V30 25 H 1.1927 -2.4474 -1.0252 0
M  V30 26 H -2.9647 -2.0137 1.6233 0
M  V30 27 H 0.4362 -3.9867 0.8155 0
M  V30 28 H -0.5705 -4.2492 -0.611 0
M  V30 END ATOM
M  V30 BEGIN BOND
M  V30 1 1 1 2
M  V30 2 1 2 3
M  V30 3 1 2 4
M  V30 4 1 3 5
M  V30 5 1 3 6
M  V30 6 1 4 7
M  V30 7 1 6 8
M  V30 8 1 7 9
M  V30 9 1 9 10
M  V30 10 2 9 11
M  V30 11 2 10 12
M  V30 12 1 10 13
M  V30 13 1 11 14
M  V30 14 1 13 15
M  V30 15 2 15 16
M  V30 16 1 5 7
M  V30 17 1 14 15
M  V30 18 1 2 17
M  V30 19 1 3 18
M  V30 20 1 4 19
M  V30 21 1 4 20
M  V30 22 1 6 21
M  V30 23 1 6 22
M  V30 24 1 7 23
M  V30 25 1 8 24
M  V30 26 1 11 25
M  V30 27 1 13 26
M  V30 28 1 14 27
M  V30 29 1 14 28
M  V30 END BOND
M  V30 END CTAB
M  END
>  <level_0>
219

>  <index>
219

>  <NO.>
220

>  <Name>
s120

>  <SMILES>
O=C1CC=[N+](C2CC(F)C(CO)O2)C(=O)N1

>  <logBB>
-0.69

>  <Class>
1

>  <MW>
231.08

>  <nHBAcc>
4

>  <nHBDon>
2

>  <SLogP>
-0.84

>  <TopoPSA>
78.64

>  <MMFF94 Energy>
-79.896

$$$$
NC(=O)c1ncn(C2OC(CO)C(O)C2O)n1
Actelion Java MolfileCreator 2.0

  0  0  0  0  0  0              0 V3000
M  V30 BEGIN CTAB
M  V30 COUNTS 29 30 0 0 0
M  V30 BEGIN ATOM
M  V30 1 O -4.4636 1.2737 -1.3534 0
M  V30 2 C -3.8898 1.6892 -0.3504 0
M  V30 3 N -4.3756 2.7678 0.3432 0
M  V30 4 C -2.6553 1.1156 0.2198 0
M  V30 5 N -2.0062 0.0535 -0.2962 0
M  V30 6 N -2.0539 1.635 1.3579 0
M  V30 7 N -0.9584 -0.073 0.5488 0
M  V30 8 C -1.0015 0.8687 1.5269 0
M  V30 9 C -0.0093 -1.1626 0.3685 0
M  V30 10 O 1.0909 -1.0095 1.2979 0
M  V30 11 C 0.6188 -1.2476 -1.0303 0
M  V30 12 C 2.2631 -0.5968 0.5498 0
M  V30 13 O -0.1788 -0.9035 -2.1585 0
M  V30 14 C 1.8141 -0.3255 -0.8878 0
M  V30 15 C 3.3112 -1.7086 0.6526 0
M  V30 16 O 1.3752 1.034 -1.0113 0
M  V30 17 O 4.4959 -1.3795 -0.0561 0
M  V30 18 H -3.8848 3.098 1.1657 0
M  V30 19 H -5.2154 3.2227 0.0205 0
M  V30 20 H -0.2645 0.9483 2.3144 0
M  V30 21 H -0.5565 -2.0783 0.6184 0
M  V30 22 H 0.9815 -2.2706 -1.1867 0
M  V30 23 H 2.6523 0.3177 1.0115 0
M  V30 24 H -1.0609 -0.6029 -1.8397 0
M  V30 25 H 2.5863 -0.4873 -1.6447 0
M  V30 26 H 3.5657 -1.9007 1.701 0
M  V30 27 H 2.9223 -2.6513 0.2532 0
M  V30 28 H 0.8978 1.079 -1.8656 0
M  V30 29 H 4.9362 -0.6519 0.4189 0
M  V30 END ATOM
M  V30 BEGIN BOND
M  V30 1 2 1 2
M  V30 2 1 2 3
M  V30 3 1 2 4
M  V30 4 2 4 5
M  V30 5 1 4 6
M  V30 6 1 5 7
M  V30 7 2 6 8
M  V30 8 1 7 9
M  V30 9 1 9 10
M  V30 10 1 9 11
M  V30 11 1 10 12
M  V30 12 1 11 13
M  V30 13 1 11 14
M  V30 14 1 12 15
M  V30 15 1 14 16
M  V30 16 1 15 17
M  V30 17 1 7 8
M  V30 18 1 12 14
M  V30 19 1 3 18
M  V30 20 1 3 19
M  V30 21 1 8 20
M  V30 22 1 9 21
M  V30 23 1 11 22
M  V30 24 1 12 23
M  V30 25 1 13 24
M  V30 26 1 14 25
M  V30 27 1 15 26
M  V30 28 1 15 27
M  V30 29 1 16 28
M  V30 30 1 17 29
M  V30 END BOND
M  V30 END CTAB
M  END
>  <level_0>
222

>  <index>
222

>  <NO.>
223

>  <Name>
ribavirin

>  <SMILES>
NC(=O)c1ncn(C2OC(CO)C(O)C2O)n1

>  <logBB>
-0.67

>  <Class>
1

>  <MW>
244.08

>  <nHBAcc>
7

>  <nHBDon>
4

>  <SLogP>
-3.01

>  <TopoPSA>
143.72

>  <MMFF94 Energy>
142.41

$$$$
NC(=O)c1cnn(C2OC(CO)C(O)C2O)n1
Actelion Java MolfileCreator 2.0

  0  0  0  0  0  0              0 V3000
M  V30 BEGIN CTAB
M  V30 COUNTS 29 30 0 0 0
M  V30 BEGIN ATOM
M  V30 1 O -3.1874 3.347 1.4334 0
M  V30 2 C -2.267 2.7455 0.8915 0
M  V30 3 N -1.4031 3.3757 0.0393 0
M  V30 4 C -1.9983 1.3254 1.0868 0
M  V30 5 N -0.9763 0.6675 0.4967 0
M  V30 6 C -2.7285 0.4223 1.8817 0
M  V30 7 N -1.1361 -0.5906 0.9948 0
M  V30 8 N -2.1977 -0.8003 1.8086 0
M  V30 9 C -0.2804 -1.7042 0.5818 0
M  V30 10 O -0.2379 -1.7629 -0.874 0
M  V30 11 C 1.1714 -1.5975 1.0367 0
M  V30 12 C 1.0746 -1.3154 -1.295 0
M  V30 13 O 1.3994 -1.0593 2.3303 0
M  V30 14 C 1.7925 -0.7614 -0.0677 0
M  V30 15 C 0.9152 -0.2804 -2.4059 0
M  V30 16 O 3.2027 -0.959 -0.0956 0
M  V30 17 O 0.2888 -0.8812 -3.5372 0
M  V30 18 H -0.6595 2.8454 -0.396 0
M  V30 19 H -1.5241 4.3585 -0.1521 0
M  V30 20 H -3.6065 0.6036 2.4872 0
M  V30 21 H -0.7506 -2.622 0.9517 0
M  V30 22 H 1.6248 -2.5978 1.0261 0
M  V30 23 H 1.5932 -2.1961 -1.6937 0
M  V30 24 H 2.3654 -0.9387 2.4101 0
M  V30 25 H 1.6126 0.3065 0.0945 0
M  V30 26 H 0.2847 0.5562 -2.0899 0
M  V30 27 H 1.8864 0.1101 -2.7237 0
M  V30 28 H 3.5723 -0.4106 -0.8111 0
M  V30 29 H -0.5179 -1.3165 -3.1985 0
M  V30 END ATOM
M  V30 BEGIN BOND
M  V30 1 2 1 2
M  V30 2 1 2 3
M  V30 3 1 2 4
M  V30 4 2 4 5
M  V30 5 1 4 6
M  V30 6 1 5 7
M  V30 7 2 6 8
M  V30 8 1 7 9
M  V30 9 1 9 10
M  V30 10 1 9 11
M  V30 11 1 10 12
M  V30 12 1 11 13
M  V30 13 1 11 14
M  V30 14 1 12 15
M  V30 15 1 14 16
M  V30 16 1 15 17
M  V30 17 1 7 8
M  V30 18 1 12 14
M  V30 19 1 3 18
M  V30 20 1 3 19
M  V30 21 1 6 20
M  V30 22 1 9 21
M  V30 23 1 11 22
M  V30 24 1 12 23
M  V30 25 1 13 24
M  V30 26 1 14 25
M  V30 27 1 15 26
M  V30 28 1 15 27
M  V30 29 1 16 28
M  V30 30 1 17 29
M  V30 END BOND
M  V30 END CTAB
M  END
>  <level_0>
225

>  <index>
225

>  <NO.>
226

>  <Name>
ribavirin

>  <SMILES>
NC(=O)c1cnn(C2OC(CO)C(O)C2O)n1

>  <logBB>
-0.67

>  <Class>
1

>  <MW>
244.08

>  <nHBAcc>
7

>  <nHBDon>
4

>  <SLogP>
-3.01

>  <TopoPSA>
143.72

>  <MMFF94 Energy>
126.9

$$$$
O=C1NCC(c2ccccc2)C2(CCN(C(=O)c3cc(C(F)(F)F)cc(C(F)(F)F)c3)CC2)O1
Actelion Java MolfileCreator 2.0

  0  0  0  0  0  0              0 V3000
M  V30 BEGIN CTAB
M  V30 COUNTS 54 57 0 0 0
M  V30 BEGIN ATOM
M  V30 1 F 3.3482 5.4758 2.8577 0
M  V30 2 C 2.2019 5.2536 3.557 0
M  V30 3 F 1.5442 6.4431 3.5975 0
M  V30 4 F 2.5911 4.9949 4.8363 0
M  V30 5 C 1.3544 4.1484 2.9705 0
M  V30 6 C 1.3793 3.8883 1.5929 0
M  V30 7 C 0.4967 3.3903 3.7902 0
M  V30 8 C 0.5853 2.8705 1.0589 0
M  V30 9 C -0.3296 2.386 3.2533 0
M  V30 10 C 0.6101 2.6329 -0.397 0
M  V30 11 C -0.2762 2.1309 1.8754 0
M  V30 12 C -1.2376 1.5709 4.1439 0
M  V30 13 O 0.1725 3.5294 -1.1123 0
M  V30 14 N 1.101 1.4233 -0.8704 0
M  V30 15 F -1.6135 2.2307 5.2732 0
M  V30 16 F -2.3915 1.1981 3.5252 0
M  V30 17 F -0.6444 0.4189 4.5587 0
M  V30 18 C 1.7559 0.3858 -0.0793 0
M  V30 19 C 1.0206 1.1286 -2.2939 0
M  V30 20 C 0.9746 -0.9196 -0.1962 0
M  V30 21 C 0.2143 -0.1525 -2.5191 0
M  V30 22 C 0.7507 -1.337 -1.6706 0
M  V30 23 O 2.0895 -1.633 -2.1924 0
M  V30 24 C -0.0545 -2.6658 -1.7445 0 CFG=1
M  V30 25 C 2.2686 -2.3262 -3.3479 0
M  V30 26 C -1.413 -2.8391 -1.079 0
M  V30 27 C -0.1084 -3.0853 -3.2136 0
M  V30 28 O 3.3488 -2.3603 -3.9215 0
M  V30 29 N 1.192 -3.0072 -3.8325 0
M  V30 30 C -2.2989 -1.7994 -0.7752 0
M  V30 31 C -1.8156 -4.1507 -0.7512 0
M  V30 32 C -3.5347 -2.0563 -0.1698 0
M  V30 33 C -3.0484 -4.4086 -0.148 0
M  V30 34 C -3.9101 -3.3585 0.1424 0
M  V30 35 H 2.0139 4.4771 0.9305 0
M  V30 36 H 0.4653 3.5937 4.863 0
M  V30 37 H -0.9146 1.3668 1.4345 0
M  V30 38 H 2.775 0.2677 -0.4665 0
M  V30 39 H 1.8551 0.6725 0.9697 0
M  V30 40 H 2.0428 1.0228 -2.6754 0
M  V30 41 H 0.555 1.9524 -2.8445 0
M  V30 42 H 0.0166 -0.7924 0.3172 0
M  V30 43 H 1.531 -1.7012 0.3356 0
M  V30 44 H -0.829 0.0633 -2.2893 0
M  V30 45 H 0.2586 -0.3775 -3.5903 0
M  V30 46 H 0.5955 -3.4035 -1.2436 0
M  V30 47 H -0.4478 -4.1213 -3.3236 0
M  V30 48 H -0.7958 -2.462 -3.7962 0
M  V30 49 H 1.3657 -3.4884 -4.7061 0
M  V30 50 H -2.0672 -0.7622 -0.9791 0
M  V30 51 H -1.1608 -4.9954 -0.9619 0
M  V30 52 H -4.206 -1.2318 0.0603 0
M  V30 53 H -3.3325 -5.4291 0.0956 0
M  V30 54 H -4.8701 -3.5525 0.6133 0
M  V30 END ATOM
M  V30 BEGIN BOND
M  V30 1 1 1 2
M  V30 2 1 2 3
M  V30 3 1 2 4
M  V30 4 1 2 5
M  V30 5 2 5 6
M  V30 6 1 5 7
M  V30 7 1 6 8
M  V30 8 2 7 9
M  V30 9 1 8 10
M  V30 10 2 8 11
M  V30 11 1 9 12
M  V30 12 2 10 13
M  V30 13 1 10 14
M  V30 14 1 12 15
M  V30 15 1 12 16
M  V30 16 1 12 17
M  V30 17 1 14 18
M  V30 18 1 14 19
M  V30 19 1 18 20
M  V30 20 1 19 21
M  V30 21 1 20 22
M  V30 22 1 22 23
M  V30 23 1 22 24
M  V30 24 1 23 25
M  V30 25 1 24 26
M  V30 26 1 24 27
M  V30 27 2 25 28
M  V30 28 1 25 29
M  V30 29 2 26 30
M  V30 30 1 26 31
M  V30 31 1 30 32
M  V30 32 2 31 33
M  V30 33 2 32 34
M  V30 34 1 9 11
M  V30 35 1 21 22
M  V30 36 1 27 29
M  V30 37 1 33 34
M  V30 38 1 6 35
M  V30 39 1 7 36
M  V30 40 1 11 37
M  V30 41 1 18 38
M  V30 42 1 18 39
M  V30 43 1 19 40
M  V30 44 1 19 41
M  V30 45 1 20 42
M  V30 46 1 20 43
M  V30 47 1 21 44
M  V30 48 1 21 45
M  V30 49 1 24 46
M  V30 50 1 27 47
M  V30 51 1 27 48
M  V30 52 1 29 49
M  V30 53 1 30 50
M  V30 54 1 31 51
M  V30 55 1 32 52
M  V30 56 1 33 53
M  V30 57 1 34 54
M  V30 END BOND
M  V30 BEGIN COLLECTION
M  V30 MDLV30/STERAC1 ATOMS=(1 24)
M  V30 END COLLECTION
M  V30 END CTAB
M  END
>  <level_0>
233

>  <index>
233

>  <NO.>
234

>  <Name>
schembl5010920

>  <SMILES>
O=C1NCC(c2ccccc2)C2(CCN(C(=O)c3cc(C(F)(F)F)cc(C(F)(F)F)c3)CC2)O1

>  <logBB>
-0.66

>  <Class>
1

>  <MW>
486.14

>  <nHBAcc>
3

>  <nHBDon>
1

>  <SLogP>
5.22

>  <TopoPSA>
58.64

>  <MMFF94 Energy>
49.856

$$$$
CCC(C)n1ncn(-c2ccc(N3CCN(c4ccc(OCC5COC(Cn6cncn6)(c6ccc(Cl)cc6Cl)O5)cc4)CC3)cc2)c1=O
Actelion Java MolfileCreator 2.0

  0  0  0  0  0  0              0 V3000
M  V30 BEGIN CTAB
M  V30 COUNTS 87 93 0 0 0
M  V30 BEGIN ATOM
M  V30 1 Cl -5.5868 4.3703 -5.7491 0
M  V30 2 C -7.1247 4.9482 -5.2043 0
M  V30 3 C -7.2705 5.8661 -4.1422 0
M  V30 4 C -8.2408 4.465 -5.9006 0
M  V30 5 C -8.5823 6.2908 -3.8307 0
M  V30 6 C -6.0832 6.4291 -3.3439 0
M  V30 7 C -9.5174 4.8944 -5.5572 0
M  V30 8 C -9.6937 5.8087 -4.5273 0
M  V30 9 O -5.211 5.3504 -2.964 0
M  V30 10 O -6.5833 7.0493 -2.136 0
M  V30 11 C -5.3326 7.4754 -4.1909 0
M  V30 12 Cl -10.8826 4.2993 -6.4167 0
M  V30 13 C -5.5151 5.08 -1.5876 0
M  V30 14 C -5.8661 6.4453 -1.0596 0
M  V30 15 N -4.1386 7.9741 -3.5403 0
M  V30 16 C -4.3269 4.4474 -0.8715 0
M  V30 17 N -4.1013 9.2032 -2.9902 0
M  V30 18 C -2.9294 7.3574 -3.4343 0
M  V30 19 O -4.2188 3.088 -1.3038 0
M  V30 20 C -2.8435 9.2535 -2.5446 0
M  V30 21 N -2.0954 8.1368 -2.7851 0
M  V30 22 C -3.1936 2.35 -0.7847 0
M  V30 23 C -2.2298 2.7936 0.1125 0
M  V30 24 C -3.1415 1.0301 -1.2215 0
M  V30 25 C -1.2296 1.9175 0.5644 0
M  V30 26 C -2.1387 0.1639 -0.7658 0
M  V30 27 C -1.1539 0.5815 0.1405 0
M  V30 28 N -0.1635 -0.2733 0.59 0
M  V30 29 C 0.567 -0.0235 1.8433 0
M  V30 30 C 0.2199 -1.4765 -0.1682 0
M  V30 31 C 1.1056 -1.3291 2.475 0
M  V30 32 C 1.6833 -1.8986 0.1044 0
M  V30 33 N 1.9495 -2.0934 1.5409 0
M  V30 34 C 2.9377 -2.9519 1.9855 0
M  V30 35 C 4.0124 -3.3319 1.1696 0
M  V30 36 C 2.9215 -3.4957 3.2776 0
M  V30 37 C 5.018 -4.2037 1.6151 0
M  V30 38 C 3.921 -4.3696 3.7339 0
M  V30 39 C 4.9851 -4.7326 2.9054 0
M  V30 40 N 5.9945 -5.5981 3.3621 0
M  V30 41 C 6.7637 -6.4649 2.6084 0
M  V30 42 C 6.41 -5.7691 4.6358 0
M  V30 43 O 6.7277 -6.6822 1.4064 0
M  V30 44 N 7.6149 -7.0895 3.5355 0
M  V30 45 N 7.3543 -6.6389 4.8093 0
M  V30 46 C 8.5731 -8.1459 3.2457 0
M  V30 47 C 7.991 -9.5076 3.6613 0
M  V30 48 C 9.9223 -7.8512 3.9011 0
M  V30 49 C 8.8444 -10.6911 3.2304 0
M  V30 50 H -8.1118 3.7547 -6.7139 0
M  V30 51 H -8.757 7.0108 -3.0308 0
M  V30 52 H -10.6896 6.1528 -4.258 0
M  V30 53 H -5.9751 8.3401 -4.3991 0
M  V30 54 H -4.9962 7.0725 -5.1514 0
M  V30 55 H -6.3843 4.4107 -1.5745 0
M  V30 56 H -4.9809 7.0562 -0.854 0
M  V30 57 H -6.488 6.4117 -0.1611 0
M  V30 58 H -4.4961 4.4722 0.2114 0
M  V30 59 H -3.4095 4.9887 -1.1322 0
M  V30 60 H -2.7233 6.3696 -3.8248 0
M  V30 61 H -2.4611 10.126 -2.0305 0
M  V30 62 H -2.211 3.8136 0.4799 0
M  V30 63 H -3.8874 0.6635 -1.9222 0
M  V30 64 H -0.4844 2.3203 1.2451 0
M  V30 65 H -2.1621 -0.8607 -1.125 0
M  V30 66 H 1.4021 0.6576 1.6388 0
M  V30 67 H -0.0852 0.4504 2.5867 0
M  V30 68 H 0.1293 -1.3026 -1.2472 0
M  V30 69 H -0.4555 -2.2972 0.1029 0
M  V30 70 H 1.6736 -1.0459 3.3696 0
M  V30 71 H 0.2645 -1.9587 2.7906 0
M  V30 72 H 1.8614 -2.8254 -0.4541 0
M  V30 73 H 2.3651 -1.131 -0.2818 0
M  V30 74 H 4.1078 -2.936 0.1619 0
M  V30 75 H 2.1029 -3.2722 3.9569 0
M  V30 76 H 5.8276 -4.4431 0.9294 0
M  V30 77 H 3.8218 -4.7721 4.7381 0
M  V30 78 H 5.9534 -5.1802 5.4411 0
M  V30 79 H 8.7194 -8.1549 2.1584 0
M  V30 80 H 7.8487 -9.5422 4.7487 0
M  V30 81 H 6.9937 -9.622 3.2174 0
M  V30 82 H 10.6888 -8.5585 3.571 0
M  V30 83 H 10.2672 -6.8448 3.6387 0
M  V30 84 H 9.8575 -7.9045 4.9934 0
M  V30 85 H 8.3315 -11.6289 3.4673 0
M  V30 86 H 9.8073 -10.7018 3.7491 0
M  V30 87 H 9.0299 -10.6701 2.152 0
M  V30 END ATOM
M  V30 BEGIN BOND
M  V30 1 1 1 2
M  V30 2 2 2 3
M  V30 3 1 2 4
M  V30 4 1 3 5
M  V30 5 1 3 6
M  V30 6 2 4 7
M  V30 7 2 5 8
M  V30 8 1 6 9
M  V30 9 1 6 10
M  V30 10 1 6 11
M  V30 11 1 7 12
M  V30 12 1 9 13
M  V30 13 1 10 14
M  V30 14 1 11 15
M  V30 15 1 13 16
M  V30 16 1 15 17
M  V30 17 1 15 18
M  V30 18 1 16 19
M  V30 19 2 17 20
M  V30 20 2 18 21
M  V30 21 1 19 22
M  V30 22 2 22 23
M  V30 23 1 22 24
M  V30 24 1 23 25
M  V30 25 2 24 26
M  V30 26 2 25 27
M  V30 27 1 27 28
M  V30 28 1 28 29
M  V30 29 1 28 30
M  V30 30 1 29 31
M  V30 31 1 30 32
M  V30 32 1 31 33
M  V30 33 1 33 34
M  V30 34 2 34 35
M  V30 35 1 34 36
M  V30 36 1 35 37
M  V30 37 2 36 38
M  V30 38 2 37 39
M  V30 39 1 39 40
M  V30 40 1 40 41
M  V30 41 1 40 42
M  V30 42 2 41 43
M  V30 43 1 41 44
M  V30 44 2 42 45
M  V30 45 1 44 46
M  V30 46 1 46 47
M  V30 47 1 46 48
M  V30 48 1 47 49
M  V30 49 1 7 8
M  V30 50 1 13 14
M  V30 51 1 20 21
M  V30 52 1 26 27
M  V30 53 1 32 33
M  V30 54 1 38 39
M  V30 55 1 44 45
M  V30 56 1 4 50
M  V30 57 1 5 51
M  V30 58 1 8 52
M  V30 59 1 11 53
M  V30 60 1 11 54
M  V30 61 1 13 55
M  V30 62 1 14 56
M  V30 63 1 14 57
M  V30 64 1 16 58
M  V30 65 1 16 59
M  V30 66 1 18 60
M  V30 67 1 20 61
M  V30 68 1 23 62
M  V30 69 1 24 63
M  V30 70 1 25 64
M  V30 71 1 26 65
M  V30 72 1 29 66
M  V30 73 1 29 67
M  V30 74 1 30 68
M  V30 75 1 30 69
M  V30 76 1 31 70
M  V30 77 1 31 71
M  V30 78 1 32 72
M  V30 79 1 32 73
M  V30 80 1 35 74
M  V30 81 1 36 75
M  V30 82 1 37 76
M  V30 83 1 38 77
M  V30 84 1 42 78
M  V30 85 1 46 79
M  V30 86 1 47 80
M  V30 87 1 47 81
M  V30 88 1 48 82
M  V30 89 1 48 83
M  V30 90 1 48 84
M  V30 91 1 49 85
M  V30 92 1 49 86
M  V30 93 1 49 87
M  V30 END BOND
M  V30 END CTAB
M  END
>  <level_0>
236

>  <index>
236

>  <NO.>
237

>  <Name>
itraconazole

>  <SMILES>
CCC(C)n1ncn(-c2ccc(N3CCN(c4ccc(OCC5COC(Cn6cncn6)(c6ccc(Cl)cc6Cl)O5)cc4)CC3)cc2)c1=O

>  <logBB>
-0.64

>  <Class>
1

>  <MW>
704.24

>  <nHBAcc>
9

>  <nHBDon>
0

>  <SLogP>
5.58

>  <TopoPSA>
104.7

>  <MMFF94 Energy>
183.09

$$$$
O=C(Cc1ccc(OCc2ccccc2)cc1)Nc1ccc2ccn(CCN3CCCC3)c2c1
Actelion Java MolfileCreator 2.0

  0  0  0  0  0  0              0 V3000
M  V30 BEGIN CTAB
M  V30 COUNTS 65 69 0 0 0
M  V30 BEGIN ATOM
M  V30 1 O -2.1489 0.5567 3.1051 0
M  V30 2 C -2.6236 1.389 2.3349 0
M  V30 3 N -3.5974 1.1522 1.3774 0
M  V30 4 C -2.1423 2.8329 2.3494 0
M  V30 5 C -4.0883 -0.1119 0.9962 0
M  V30 6 C -0.846 2.9854 1.5918 0
M  V30 7 C -3.3129 -1.2695 1.1104 0
M  V30 8 C -5.3542 -0.1718 0.412 0
M  V30 9 C -0.8441 3.3486 0.2406 0
M  V30 10 C 0.3744 2.6983 2.2173 0
M  V30 11 C -3.8329 -2.4819 0.6261 0
M  V30 12 C -5.8759 -1.387 -0.0533 0
M  V30 13 C 0.3575 3.4129 -0.4679 0
M  V30 14 C 1.5761 2.7649 1.505 0
M  V30 15 N -3.2874 -3.7489 0.5781 0
M  V30 16 C -5.1025 -2.5592 0.0494 0
M  V30 17 C 1.5694 3.106 0.1534 0
M  V30 18 C -4.1851 -4.6233 0.0146 0
M  V30 19 C -1.9791 -4.1399 1.0848 0
M  V30 20 C -5.3137 -3.9132 -0.325 0
M  V30 21 O 2.6644 3.1753 -0.6622 0
M  V30 22 C -0.8547 -4.0305 0.0394 0
M  V30 23 C 3.8681 2.5898 -0.1681 0
M  V30 24 N -0.3556 -2.667 -0.1685 0
M  V30 25 C 4.8616 2.5013 -1.3016 0
M  V30 26 C 0.4832 -2.5456 -1.3614 0
M  V30 27 C 0.4759 -2.1626 0.9262 0
M  V30 28 C 4.5656 1.7357 -2.4396 0
M  V30 29 C 6.0954 3.1624 -1.2313 0
M  V30 30 C 1.1887 -1.2084 -1.1704 0
M  V30 31 C 1.0718 -0.9041 0.3184 0
M  V30 32 C 5.4843 1.6345 -3.4851 0
M  V30 33 C 7.0133 3.0596 -2.2784 0
M  V30 34 C 6.708 2.2958 -3.4036 0
M  V30 35 H -4.0073 1.9474 0.9067 0
M  V30 36 H -2.0101 3.1419 3.3936 0
M  V30 37 H -2.9055 3.5015 1.9337 0
M  V30 38 H -2.3133 -1.2347 1.525 0
M  V30 39 H -5.9622 0.7229 0.3125 0
M  V30 40 H -1.773 3.5688 -0.279 0
M  V30 41 H 0.3938 2.3967 3.2636 0
M  V30 42 H -6.8649 -1.4216 -0.5 0
M  V30 43 H 0.3483 3.6855 -1.5205 0
M  V30 44 H 2.4939 2.534 2.0348 0
M  V30 45 H -3.9487 -5.6724 -0.1028 0
M  V30 46 H -2.0699 -5.1869 1.4007 0
M  V30 47 H -1.7723 -3.563 1.992 0
M  V30 48 H -6.1973 -4.3222 -0.7962 0
M  V30 49 H -0.0271 -4.6855 0.3413 0
M  V30 50 H -1.232 -4.4251 -0.9132 0
M  V30 51 H 3.6924 1.5737 0.2082 0
M  V30 52 H 4.2713 3.2113 0.6404 0
M  V30 53 H -0.1089 -2.5584 -2.282 0
M  V30 54 H 1.2267 -3.3511 -1.4146 0
M  V30 55 H -0.0933 -1.9329 1.8309 0
M  V30 56 H 1.2744 -2.869 1.1862 0
M  V30 57 H 3.6095 1.2214 -2.5154 0
M  V30 58 H 6.3495 3.7659 -0.3629 0
M  V30 59 H 0.706 -0.4161 -1.7538 0
M  V30 60 H 2.2358 -1.2678 -1.485 0
M  V30 61 H 0.3946 -0.0548 0.4665 0
M  V30 62 H 2.0379 -0.6486 0.7639 0
M  V30 63 H 5.2426 1.0429 -4.3641 0
M  V30 64 H 7.9665 3.5783 -2.2172 0
M  V30 65 H 7.4224 2.2192 -4.2189 0
M  V30 END ATOM
M  V30 BEGIN BOND
M  V30 1 2 1 2
M  V30 2 1 2 3
M  V30 3 1 2 4
M  V30 4 1 3 5
M  V30 5 1 4 6
M  V30 6 2 5 7
M  V30 7 1 5 8
M  V30 8 2 6 9
M  V30 9 1 6 10
M  V30 10 1 7 11
M  V30 11 2 8 12
M  V30 12 1 9 13
M  V30 13 2 10 14
M  V30 14 1 11 15
M  V30 15 2 11 16
M  V30 16 2 13 17
M  V30 17 1 15 18
M  V30 18 1 15 19
M  V30 19 1 16 20
M  V30 20 1 17 21
M  V30 21 1 19 22
M  V30 22 1 21 23
M  V30 23 1 22 24
M  V30 24 1 23 25
M  V30 25 1 24 26
M  V30 26 1 24 27
M  V30 27 2 25 28
M  V30 28 1 25 29
M  V30 29 1 26 30
M  V30 30 1 27 31
M  V30 31 1 28 32
M  V30 32 2 29 33
M  V30 33 2 32 34
M  V30 34 1 12 16
M  V30 35 1 14 17
M  V30 36 2 18 20
M  V30 37 1 30 31
M  V30 38 1 33 34
M  V30 39 1 3 35
M  V30 40 1 4 36
M  V30 41 1 4 37
M  V30 42 1 7 38
M  V30 43 1 8 39
M  V30 44 1 9 40
M  V30 45 1 10 41
M  V30 46 1 12 42
M  V30 47 1 13 43
M  V30 48 1 14 44
M  V30 49 1 18 45
M  V30 50 1 19 46
M  V30 51 1 19 47
M  V30 52 1 20 48
M  V30 53 1 22 49
M  V30 54 1 22 50
M  V30 55 1 23 51
M  V30 56 1 23 52
M  V30 57 1 26 53
M  V30 58 1 26 54
M  V30 59 1 27 55
M  V30 60 1 27 56
M  V30 61 1 28 57
M  V30 62 1 29 58
M  V30 63 1 30 59
M  V30 64 1 30 60
M  V30 65 1 31 61
M  V30 66 1 31 62
M  V30 67 1 32 63
M  V30 68 1 33 64
M  V30 69 1 34 65
M  V30 END BOND
M  V30 END CTAB
M  END
>  <level_0>
253

>  <index>
253

>  <NO.>
254

>  <Name>
chembl2096766

>  <SMILES>
O=C(Cc1ccc(OCc2ccccc2)cc1)Nc1ccc2ccn(CCN3CCCC3)c2c1

>  <logBB>
-0.59

>  <Class>
1

>  <MW>
453.24

>  <nHBAcc>
3

>  <nHBDon>
1

>  <SLogP>
5.5

>  <TopoPSA>
46.5

>  <MMFF94 Energy>
87.542

$$$$
C/C(=C(\CCOC(=O)c1cc(=O)c2c(Cl)cc(Cl)cc2[nH]1)SSC(C)C)N(C=O)Cc1cnc(C)nc1N
Actelion Java MolfileCreator 2.0

  0  0  0  0  0  0              0 V3000
M  V30 BEGIN CTAB
M  V30 COUNTS 65 67 0 0 0
M  V30 BEGIN ATOM
M  V30 1 Cl -5.407 7.872 -1.0633 0
M  V30 2 C -5.4107 6.6026 -2.2354 0
M  V30 3 C -4.5446 5.4977 -2.2075 0
M  V30 4 C -6.3559 6.7253 -3.262 0
M  V30 5 C -3.5062 5.2841 -1.1512 0
M  V30 6 C -4.6379 4.5177 -3.222 0
M  V30 7 C -6.4394 5.7552 -4.2551 0
M  V30 8 O -3.3196 6.0519 -0.2159 0
M  V30 9 C -2.6495 4.0755 -1.2331 0
M  V30 10 N -3.7871 3.4083 -3.2161 0
M  V30 11 C -5.5878 4.6552 -4.2405 0
M  V30 12 Cl -7.6038 5.9159 -5.5108 0
M  V30 13 C -2.8302 3.2147 -2.2424 0
M  V30 14 C -1.9905 1.978 -2.3701 0
M  V30 15 O -2.152 1.1862 -3.2902 0
M  V30 16 O -1.0791 1.869 -1.3738 0
M  V30 17 C -0.2407 0.7047 -1.4609 0
M  V30 18 C 0.7003 0.7151 -0.2566 0
M  V30 19 C 1.6245 -0.489 -0.2435 0
M  V30 20 S 3.2127 -0.1639 -0.9476 0
M  V30 21 C 1.3001 -1.6828 0.3274 0
M  V30 22 S 4.3295 -0.0333 0.7806 0
M  V30 23 N 2.1263 -2.8178 0.2523 0
M  V30 24 C 0.0089 -1.9011 1.0894 0
M  V30 25 C 4.164 1.7265 1.275 0
M  V30 26 C 2.5797 -3.3167 -0.9699 0
M  V30 27 C 2.536 -3.5 1.4845 0
M  V30 28 C 4.7843 1.8919 2.661 0
M  V30 29 C 4.8412 2.6557 0.2722 0
M  V30 30 O 2.1856 -3.0016 -2.0864 0
M  V30 31 C 1.7059 -4.6761 1.9148 0
M  V30 32 C 1.7841 -5.1842 3.2018 0
M  V30 33 C 0.8464 -5.3621 1.078 0
M  V30 34 N 1.0434 -6.218 3.6269 0
M  V30 35 N 2.5975 -4.6272 4.1702 0
M  V30 36 N 0.1026 -6.4184 1.456 0
M  V30 37 C 0.233 -6.8074 2.7322 0
M  V30 38 C -0.6134 -7.9473 3.204 0
M  V30 39 H -7.028 7.5809 -3.2853 0
M  V30 40 H -1.9103 3.9593 -0.451 0
M  V30 41 H -3.8409 2.6953 -3.9415 0
M  V30 42 H -5.6644 3.9045 -5.0236 0
M  V30 43 H 0.3312 0.7414 -2.3958 0
M  V30 44 H -0.8676 -0.1948 -1.4517 0
M  V30 45 H 0.1236 0.7899 0.6729 0
M  V30 46 H 1.2725 1.6529 -0.266 0
M  V30 47 H -0.7257 -1.1054 0.9506 0
M  V30 48 H -0.4833 -2.8171 0.747 0
M  V30 49 H 0.2029 -1.9849 2.1635 0
M  V30 50 H 3.0991 1.9709 1.3476 0
M  V30 51 H 3.3371 -4.1087 -0.843 0
M  V30 52 H 3.5646 -3.8561 1.3423 0
M  V30 53 H 2.5675 -2.7455 2.281 0
M  V30 54 H 4.2895 1.2507 3.3994 0
M  V30 55 H 4.6753 2.9264 3.0061 0
M  V30 56 H 5.8547 1.6563 2.661 0
M  V30 57 H 4.3668 2.6094 -0.7129 0
M  V30 58 H 4.7709 3.6958 0.6106 0
M  V30 59 H 5.9048 2.4199 0.1538 0
M  V30 60 H 0.7005 -5.0773 0.0394 0
M  V30 61 H 3.5378 -4.3548 3.9277 0
M  V30 62 H 2.4897 -5.095 5.0645 0
M  V30 63 H -0.1093 -8.4954 4.006 0
M  V30 64 H -0.8117 -8.645 2.3846 0
M  V30 65 H -1.5667 -7.5665 3.5819 0
M  V30 END ATOM
M  V30 BEGIN BOND
M  V30 1 1 1 2
M  V30 2 2 2 3
M  V30 3 1 2 4
M  V30 4 1 3 5
M  V30 5 1 3 6
M  V30 6 2 4 7
M  V30 7 2 5 8
M  V30 8 1 5 9
M  V30 9 1 6 10
M  V30 10 2 6 11
M  V30 11 1 7 12
M  V30 12 2 9 13
M  V30 13 1 13 14
M  V30 14 2 14 15
M  V30 15 1 14 16
M  V30 16 1 16 17
M  V30 17 1 17 18
M  V30 18 1 18 19
M  V30 19 1 19 20
M  V30 20 2 19 21
M  V30 21 1 20 22
M  V30 22 1 21 23
M  V30 23 1 21 24
M  V30 24 1 22 25
M  V30 25 1 23 26
M  V30 26 1 23 27
M  V30 27 1 25 28
M  V30 28 1 25 29
M  V30 29 2 26 30
M  V30 30 1 27 31
M  V30 31 2 31 32
M  V30 32 1 31 33
M  V30 33 1 32 34
M  V30 34 1 32 35
M  V30 35 2 33 36
M  V30 36 2 34 37
M  V30 37 1 37 38
M  V30 38 1 7 11
M  V30 39 1 10 13
M  V30 40 1 36 37
M  V30 41 1 4 39
M  V30 42 1 9 40
M  V30 43 1 10 41
M  V30 44 1 11 42
M  V30 45 1 17 43
M  V30 46 1 17 44
M  V30 47 1 18 45
M  V30 48 1 18 46
M  V30 49 1 24 47
M  V30 50 1 24 48
M  V30 51 1 24 49
M  V30 52 1 25 50
M  V30 53 1 26 51
M  V30 54 1 27 52
M  V30 55 1 27 53
M  V30 56 1 28 54
M  V30 57 1 28 55
M  V30 58 1 28 56
M  V30 59 1 29 57
M  V30 60 1 29 58
M  V30 61 1 29 59
M  V30 62 1 33 60
M  V30 63 1 35 61
M  V30 64 1 35 62
M  V30 65 1 38 63
M  V30 66 1 38 64
M  V30 67 1 38 65
M  V30 END BOND
M  V30 END CTAB
M  END
>  <level_0>
255

>  <index>
255

>  <NO.>
256

>  <Name>
tipr-dcka

>  <SMILES>
C/C(=C(\CCOC(=O)c1cc(=O)c2c(Cl)cc(Cl)cc2[nH]1)SSC(C)C)N(C=O)Cc1cnc(C)nc1N

>  <logBB>
-0.57

>  <Class>
1

>  <MW>
595.09

>  <nHBAcc>
9

>  <nHBDon>
2

>  <SLogP>
5.74

>  <TopoPSA>
131.27

>  <MMFF94 Energy>
9.9415

$$$$
Oc1cccc(-c2ccc3cc(O)ccc3c2Oc2ccc(OCCN3CCCCC3)cc2)c1
Actelion Java MolfileCreator 2.0

  0  0  0  0  0  0              0 V3000
M  V30 BEGIN CTAB
M  V30 COUNTS 63 67 0 0 0
M  V30 BEGIN ATOM
M  V30 1 O 2.6333 1.0367 1.4357 0
M  V30 2 C 3.7381 0.3051 1.0306 0
M  V30 3 C 1.4118 0.6358 0.9352 0
M  V30 4 C 4.3571 -0.5507 1.9771 0
M  V30 5 C 4.2538 0.4724 -0.2727 0
M  V30 6 C 1.0374 -0.6998 0.7719 0
M  V30 7 C 0.5089 1.6507 0.6228 0
M  V30 8 C 5.4895 -1.2977 1.5743 0
M  V30 9 C 3.8923 -0.7006 3.3026 0
M  V30 10 C 3.6805 1.4215 -1.2372 0
M  V30 11 C 5.3739 -0.2849 -0.6391 0
M  V30 12 C -0.2294 -1.0179 0.2683 0
M  V30 13 C -0.7514 1.3299 0.1155 0
M  V30 14 C 6.1154 -2.1661 2.4856 0
M  V30 15 C 5.9782 -1.1602 0.2669 0
M  V30 16 C 4.5227 -1.5654 4.1978 0
M  V30 17 C 2.8543 0.9749 -2.281 0
M  V30 18 C 3.9476 2.7965 -1.1299 0
M  V30 19 C -1.1279 -0.0034 -0.0646 0
M  V30 20 C 5.6274 -2.2911 3.7829 0
M  V30 21 C 2.3103 1.8898 -3.1797 0
M  V30 22 C 3.4052 3.7038 -2.0432 0
M  V30 23 O -2.3866 -0.1765 -0.568 0
M  V30 24 O 6.2146 -3.1252 4.6876 0
M  V30 25 O 1.4878 1.4864 -4.1905 0
M  V30 26 C 2.5847 3.2473 -3.0719 0
M  V30 27 C -2.856 -1.5197 -0.7124 0
M  V30 28 C -4.3031 -1.4999 -1.2438 0
M  V30 29 N -5.3461 -1.4349 -0.1975 0
M  V30 30 C -6.6951 -1.5917 -0.7672 0
M  V30 31 C -5.2843 -0.2235 0.6356 0
M  V30 32 C -7.194 -0.3681 -1.5419 0
M  V30 33 C -5.7082 1.0535 -0.0928 0
M  V30 34 C -7.0987 0.9012 -0.7015 0
M  V30 35 H 1.7138 -1.5066 1.0384 0
M  V30 36 H 0.7922 2.6914 0.7534 0
M  V30 37 H 3.0268 -0.1377 3.6478 0
M  V30 38 H 5.7959 -0.1829 -1.6376 0
M  V30 39 H -0.4819 -2.0667 0.1544 0
M  V30 40 H -1.4452 2.1265 -0.1414 0
M  V30 41 H 6.9842 -2.7389 2.1743 0
M  V30 42 H 6.85 -1.7247 -0.0583 0
M  V30 43 H 4.1508 -1.6681 5.2133 0
M  V30 44 H 2.6314 -0.0843 -2.369 0
M  V30 45 H 4.5818 3.1663 -0.3264 0
M  V30 46 H 3.6196 4.7649 -1.9489 0
M  V30 47 H 6.9801 -3.5522 4.2698 0
M  V30 48 H 1.2823 0.5463 -4.0588 0
M  V30 49 H 2.1544 3.9471 -3.7824 0
M  V30 50 H -2.8107 -2.0604 0.241 0
M  V30 51 H -2.2289 -2.0347 -1.4506 0
M  V30 52 H -4.4128 -0.6893 -1.973 0
M  V30 53 H -4.4463 -2.4453 -1.7825 0
M  V30 54 H -7.3931 -1.7988 0.0547 0
M  V30 55 H -6.7354 -2.4789 -1.4111 0
M  V30 56 H -4.2914 -0.0943 1.0775 0
M  V30 57 H -5.9504 -0.3713 1.4967 0
M  V30 58 H -8.235 -0.527 -1.8462 0
M  V30 59 H -6.6146 -0.2425 -2.464 0
M  V30 60 H -4.985 1.3017 -0.8784 0
M  V30 61 H -5.7087 1.894 0.6107 0
M  V30 62 H -7.3398 1.7771 -1.3137 0
M  V30 63 H -7.8434 0.8588 0.1032 0
M  V30 END ATOM
M  V30 BEGIN BOND
M  V30 1 1 1 2
M  V30 2 1 1 3
M  V30 3 1 2 4
M  V30 4 2 2 5
M  V30 5 2 3 6
M  V30 6 1 3 7
M  V30 7 1 4 8
M  V30 8 2 4 9
M  V30 9 1 5 10
M  V30 10 1 5 11
M  V30 11 1 6 12
M  V30 12 2 7 13
M  V30 13 2 8 14
M  V30 14 1 8 15
M  V30 15 1 9 16
M  V30 16 2 10 17
M  V30 17 1 10 18
M  V30 18 2 12 19
M  V30 19 1 14 20
M  V30 20 1 17 21
M  V30 21 2 18 22
M  V30 22 1 19 23
M  V30 23 1 20 24
M  V30 24 1 21 25
M  V30 25 2 21 26
M  V30 26 1 23 27
M  V30 27 1 27 28
M  V30 28 1 28 29
M  V30 29 1 29 30
M  V30 30 1 29 31
M  V30 31 1 30 32
M  V30 32 1 31 33
M  V30 33 1 32 34
M  V30 34 2 11 15
M  V30 35 1 13 19
M  V30 36 2 16 20
M  V30 37 1 22 26
M  V30 38 1 33 34
M  V30 39 1 6 35
M  V30 40 1 7 36
M  V30 41 1 9 37
M  V30 42 1 11 38
M  V30 43 1 12 39
M  V30 44 1 13 40
M  V30 45 1 14 41
M  V30 46 1 15 42
M  V30 47 1 16 43
M  V30 48 1 17 44
M  V30 49 1 18 45
M  V30 50 1 22 46
M  V30 51 1 24 47
M  V30 52 1 25 48
M  V30 53 1 26 49
M  V30 54 1 27 50
M  V30 55 1 27 51
M  V30 56 1 28 52
M  V30 57 1 28 53
M  V30 58 1 30 54
M  V30 59 1 30 55
M  V30 60 1 31 56
M  V30 61 1 31 57
M  V30 62 1 32 58
M  V30 63 1 32 59
M  V30 64 1 33 60
M  V30 65 1 33 61
M  V30 66 1 34 62
M  V30 67 1 34 63
M  V30 END BOND
M  V30 END CTAB
M  END
>  <level_0>
256

>  <index>
256

>  <NO.>
257

>  <Name>
chembl390020

>  <SMILES>
Oc1cccc(-c2ccc3cc(O)ccc3c2Oc2ccc(OCCN3CCCCC3)cc2)c1

>  <logBB>
-0.57

>  <Class>
1

>  <MW>
455.21

>  <nHBAcc>
5

>  <nHBDon>
2

>  <SLogP>
6.58

>  <TopoPSA>
62.16

>  <MMFF94 Energy>
90.409

$$$$
CC(=O)OC1C(=O)[C@]2(C)[C@@H](O)C[C@H]3OCC3(OC(C)=O)[C@H]2C(OC(=O)c2ccccc2)[C@]2(O)C[C@H](OC(=O)[C@H](O)C(NC(=O)c3ccccc3)c3ccccc3)C(C)=C1C2(C)C
Actelion Java MolfileCreator 2.0

  0  0  0  0  0  0              0 V3000
M  V30 BEGIN CTAB
M  V30 COUNTS 113 119 0 0 0
M  V30 BEGIN ATOM
M  V30 1 O -0.2422 -5.0161 -2.2629 0
M  V30 2 C -0.1169 -3.7982 -2.065 0
M  V30 3 C -1.382 -2.9012 -1.7764 0 CFG=1
M  V30 4 C 1.3063 -3.1818 -2.1373 0
M  V30 5 C -1.2778 -1.9587 -0.4445 0 CFG=1
M  V30 6 C -1.5776 -1.9973 -3.0625 0 CFG=1
M  V30 7 C -2.5748 -3.9034 -1.6833 0
M  V30 8 O 2.3186 -4.1486 -2.4183 0
M  V30 9 C 1.6646 -2.5444 -0.8122 0
M  V30 10 C -2.514 -1.0 -0.3861 0
M  V30 11 C -0.9518 -2.6575 0.9151 0
M  V30 12 O -1.874 -2.7631 -4.2211 0
M  V30 13 C -2.6289 -0.8729 -2.923 0
M  V30 14 C 2.4352 -4.486 -3.7295 0
M  V30 15 C 1.9427 -1.2149 -0.7228 0
M  V30 16 C 1.5831 -3.3799 0.4829 0
M  V30 17 O -3.7551 -1.7601 -0.4334 0
M  V30 18 C -2.2407 -0.1402 -1.6707 0 CFG=1
M  V30 19 C -2.6109 0.4733 0.1888 0
M  V30 20 O -1.68 -2.0105 2.0006 0
M  V30 21 C 0.5792 -2.6309 1.4163 0 CFG=2
M  V30 22 O 1.8607 -3.9338 -4.6564 0
M  V30 23 C 3.4046 -5.6165 -3.8837 0
M  V30 24 C 1.8781 -0.4744 0.606 0 CFG=2
M  V30 25 C 2.296 -0.3445 -1.9074 0
M  V30 26 C 1.2009 -4.8829 0.3839 0
M  V30 27 C 3.022 -3.4407 1.0933 0
M  V30 28 C -4.6456 -1.6981 0.5899 0
M  V30 29 O -3.0996 0.9039 -1.152 0
M  V30 30 C -2.5314 -2.7928 2.7213 0
M  V30 31 O 0.589 -3.3213 2.6916 0
M  V30 32 C 1.0958 -1.1958 1.7275 0
M  V30 33 O 1.2221 0.7908 0.3543 0
M  V30 34 O -4.5274 -1.05 1.6171 0
M  V30 35 C -5.818 -2.5811 0.2884 0
M  V30 36 O -2.9252 -3.9003 2.3945 0
M  V30 37 C -2.8695 -2.1442 4.0177 0
M  V30 38 C 1.5181 1.7925 1.2366 0
M  V30 39 C -3.5319 -2.9112 4.9855 0
M  V30 40 C -2.535 -0.8134 4.3032 0
M  V30 41 O 2.2212 1.6636 2.229 0
M  V30 42 C 0.8555 3.1029 0.8046 0 CFG=2
M  V30 43 C -3.8505 -2.3558 6.2261 0
M  V30 44 C -2.8566 -0.2613 5.5453 0
M  V30 45 O -0.0547 2.9777 -0.2978 0
M  V30 46 C 1.9338 4.1747 0.5224 0
M  V30 47 C -3.5112 -1.0326 6.5051 0
M  V30 48 N 1.295 5.4589 0.2369 0
M  V30 49 C 2.8704 3.7772 -0.6154 0
M  V30 50 C 1.8191 6.6533 0.674 0
M  V30 51 C 4.146 3.2721 -0.3145 0
M  V30 52 C 2.4932 3.8788 -1.9651 0
M  V30 53 O 2.8397 6.7351 1.3473 0
M  V30 54 C 1.0894 7.8855 0.266 0
M  V30 55 C 5.0154 2.8755 -1.332 0
M  V30 56 C 3.3639 3.4801 -2.9811 0
M  V30 57 C 1.8182 9.0751 0.1405 0
M  V30 58 C -0.2919 7.8926 0.0308 0
M  V30 59 C 4.6234 2.9776 -2.6643 0
M  V30 60 C 1.1775 10.2552 -0.2406 0
M  V30 61 C -0.9291 9.0765 -0.3496 0
M  V30 62 C -0.1943 10.2539 -0.4888 0
M  V30 63 H 1.2765 -2.4432 -2.9411 0
M  V30 64 H -0.4437 -1.2903 -0.6214 0
M  V30 65 H -0.6236 -1.5023 -3.2761 0
M  V30 66 H -2.5117 -4.6992 -2.435 0
M  V30 67 H -3.5425 -3.4383 -1.8784 0
M  V30 68 H -2.6146 -4.397 -0.7083 0
M  V30 69 H -1.2624 -3.7017 0.8598 0
M  V30 70 H -2.7776 -3.119 -4.157 0
M  V30 71 H -3.6473 -1.2736 -2.896 0
M  V30 72 H -2.5845 -0.2151 -3.7986 0
M  V30 73 H -1.2282 0.2816 -1.7885 0
M  V30 74 H -1.6619 0.9519 0.4543 0
M  V30 75 H -3.3458 0.7224 0.9515 0
M  V30 76 H 4.404 -5.29 -3.5864 0
M  V30 77 H 3.0814 -6.4671 -3.2783 0
M  V30 78 H 3.4321 -5.9298 -4.9311 0
M  V30 79 H 2.9113 -0.2792 0.9224 0
M  V30 80 H 3.0755 0.3699 -1.625 0
M  V30 81 H 2.7081 -0.916 -2.7436 0
M  V30 82 H 1.4203 0.2118 -2.2549 0
M  V30 83 H 1.8285 -5.4192 -0.3346 0
M  V30 84 H 1.3425 -5.3883 1.3478 0
M  V30 85 H 0.1578 -5.0549 0.1225 0
M  V30 86 H 3.0282 -3.9677 2.0546 0
M  V30 87 H 3.7014 -3.9799 0.4212 0
M  V30 88 H 3.4738 -2.4624 1.2722 0
M  V30 89 H 0.0327 -2.8162 3.3104 0
M  V30 90 H 1.7698 -1.2517 2.5953 0
M  V30 91 H 0.2702 -0.5699 2.0873 0
M  V30 92 H -6.2717 -2.2852 -0.6608 0
M  V30 93 H -5.4946 -3.6242 0.2523 0
M  V30 94 H -6.5669 -2.4716 1.0779 0
M  V30 95 H -3.8013 -3.9449 4.7777 0
M  V30 96 H -2.0423 -0.1886 3.5644 0
M  V30 97 H 0.2354 3.4242 1.6501 0
M  V30 98 H -4.3652 -2.9549 6.9732 0
M  V30 99 H -2.6037 0.7736 5.7626 0
M  V30 100 H 0.4031 2.436 -0.9676 0
M  V30 101 H 2.5367 4.3034 1.4308 0
M  V30 102 H -3.7636 -0.5997 7.4702 0
M  V30 103 H 0.4997 5.4432 -0.3871 0
M  V30 104 H 4.4794 3.1948 0.7199 0
M  V30 105 H 1.5225 4.284 -2.2419 0
M  V30 106 H 6.0036 2.4965 -1.0832 0
M  V30 107 H 3.0647 3.5746 -4.0221 0
M  V30 108 H 2.8886 9.0827 0.3373 0
M  V30 109 H -0.8927 6.9983 0.1652 0
M  V30 110 H 5.3051 2.6776 -3.4559 0
M  V30 111 H 1.7491 11.1746 -0.3398 0
M  V30 112 H -2.0017 9.0838 -0.5283 0
M  V30 113 H -0.6931 11.1747 -0.7821 0
M  V30 END ATOM
M  V30 BEGIN BOND
M  V30 1 2 1 2
M  V30 2 1 2 3
M  V30 3 1 2 4
M  V30 4 1 3 5
M  V30 5 1 3 6
M  V30 6 1 3 7
M  V30 7 1 4 8
M  V30 8 1 4 9
M  V30 9 1 5 10
M  V30 10 1 5 11
M  V30 11 1 6 12
M  V30 12 1 6 13
M  V30 13 1 8 14
M  V30 14 2 9 15
M  V30 15 1 9 16
M  V30 16 1 10 17
M  V30 17 1 10 18
M  V30 18 1 10 19
M  V30 19 1 11 20
M  V30 20 1 11 21
M  V30 21 2 14 22
M  V30 22 1 14 23
M  V30 23 1 15 24
M  V30 24 1 15 25
M  V30 25 1 16 26
M  V30 26 1 16 27
M  V30 27 1 17 28
M  V30 28 1 18 29
M  V30 29 1 20 30
M  V30 30 1 21 31
M  V30 31 1 21 32
M  V30 32 1 24 33
M  V30 33 2 28 34
M  V30 34 1 28 35
M  V30 35 2 30 36
M  V30 36 1 30 37
M  V30 37 1 33 38
M  V30 38 2 37 39
M  V30 39 1 37 40
M  V30 40 2 38 41
M  V30 41 1 38 42
M  V30 42 1 39 43
M  V30 43 2 40 44
M  V30 44 1 42 45
M  V30 45 1 42 46
M  V30 46 2 43 47
M  V30 47 1 46 48
M  V30 48 1 46 49
M  V30 49 1 48 50
M  V30 50 2 49 51
M  V30 51 1 49 52
M  V30 52 2 50 53
M  V30 53 1 50 54
M  V30 54 1 51 55
M  V30 55 2 52 56
M  V30 56 2 54 57
M  V30 57 1 54 58
M  V30 58 2 55 59
M  V30 59 1 57 60
M  V30 60 2 58 61
M  V30 61 2 60 62
M  V30 62 1 13 18
M  V30 63 1 16 21
M  V30 64 1 19 29
M  V30 65 1 24 32
M  V30 66 1 44 47
M  V30 67 1 56 59
M  V30 68 1 61 62
M  V30 69 1 4 63
M  V30 70 1 5 64
M  V30 71 1 6 65
M  V30 72 1 7 66
M  V30 73 1 7 67
M  V30 74 1 7 68
M  V30 75 1 11 69
M  V30 76 1 12 70
M  V30 77 1 13 71
M  V30 78 1 13 72
M  V30 79 1 18 73
M  V30 80 1 19 74
M  V30 81 1 19 75
M  V30 82 1 23 76
M  V30 83 1 23 77
M  V30 84 1 23 78
M  V30 85 1 24 79
M  V30 86 1 25 80
M  V30 87 1 25 81
M  V30 88 1 25 82
M  V30 89 1 26 83
M  V30 90 1 26 84
M  V30 91 1 26 85
M  V30 92 1 27 86
M  V30 93 1 27 87
M  V30 94 1 27 88
M  V30 95 1 31 89
M  V30 96 1 32 90
M  V30 97 1 32 91
M  V30 98 1 35 92
M  V30 99 1 35 93
M  V30 100 1 35 94
M  V30 101 1 39 95
M  V30 102 1 40 96
M  V30 103 1 42 97
M  V30 104 1 43 98
M  V30 105 1 44 99
M  V30 106 1 45 100
M  V30 107 1 46 101
M  V30 108 1 47 102
M  V30 109 1 48 103
M  V30 110 1 51 104
M  V30 111 1 52 105
M  V30 112 1 55 106
M  V30 113 1 56 107
M  V30 114 1 57 108
M  V30 115 1 58 109
M  V30 116 1 59 110
M  V30 117 1 60 111
M  V30 118 1 61 112
M  V30 119 1 62 113
M  V30 END BOND
M  V30 BEGIN COLLECTION
M  V30 MDLV30/STEABS ATOMS=(7 3 5 6 18 21 24 42)
M  V30 END COLLECTION
M  V30 END CTAB
M  END
>  <level_0>
262

>  <index>
262

>  <NO.>
263

>  <Name>
paclitaxel

>  <SMILES>
CC(=O)OC1C(=O)[C@]2(C)[C@@H](O)C[C@H]3OCC3(OC(C)=O)[C@H]2C(OC(=O)c2ccccc2)[C@]2(O)C[C@H](OC(=O)[C@H](O)C(NC(=O)c3ccccc3)c3ccccc3)C(C)=C1C2(C)C

>  <logBB>
-0.55

>  <Class>
1

>  <MW>
853.33

>  <nHBAcc>
14

>  <nHBDon>
4

>  <SLogP>
3.74

>  <TopoPSA>
221.29

>  <MMFF94 Energy>
239.73

$$$$
CC(=O)Nc1nnc(S(N)(=O)=O)s1
Actelion Java MolfileCreator 2.0

  0  0  0  0  0  0              0 V3000
M  V30 BEGIN CTAB
M  V30 COUNTS 19 19 0 0 0
M  V30 BEGIN ATOM
M  V30 1 S -1.9362 -2.3575 1.852 0
M  V30 2 O -1.3239 -3.6329 1.5567 0
M  V30 3 O -3.2891 -2.0273 1.4648 0
M  V30 4 N -1.8368 -2.1359 3.5236 0
M  V30 5 C -0.9114 -1.1487 1.0891 0
M  V30 6 S -0.8168 -1.0925 -0.6125 0
M  V30 7 N -0.1814 -0.26 1.731 0
M  V30 8 C 0.2526 0.2252 -0.4056 0
M  V30 9 N 0.5114 0.543 0.8413 0
M  V30 10 N 0.745 0.7435 -1.5711 0
M  V30 11 C 1.4559 1.9214 -1.5939 0
M  V30 12 O 1.6797 2.6604 -0.6429 0
M  V30 13 C 1.9307 2.2745 -2.9804 0
M  V30 14 H -0.8809 -2.258 3.8596 0
M  V30 15 H -2.25 -1.2458 3.8042 0
M  V30 16 H 0.5744 0.2238 -2.4188 0
M  V30 17 H 2.2699 1.3813 -3.513 0
M  V30 18 H 2.7671 2.9759 -2.9137 0
M  V30 19 H 1.111 2.7388 -3.5354 0
M  V30 END ATOM
M  V30 BEGIN BOND
M  V30 1 2 1 2
M  V30 2 2 1 3
M  V30 3 1 1 4
M  V30 4 1 1 5
M  V30 5 1 5 6
M  V30 6 2 5 7
M  V30 7 1 6 8
M  V30 8 1 7 9
M  V30 9 1 8 10
M  V30 10 1 10 11
M  V30 11 2 11 12
M  V30 12 1 11 13
M  V30 13 2 8 9
M  V30 14 1 4 14
M  V30 15 1 4 15
M  V30 16 1 10 16
M  V30 17 1 13 17
M  V30 18 1 13 18
M  V30 19 1 13 19
M  V30 END BOND
M  V30 END CTAB
M  END
>  <level_0>
266

>  <index>
266

>  <NO.>
267

>  <Name>
acetazolamide

>  <SMILES>
CC(=O)Nc1nnc(S(N)(=O)=O)s1

>  <logBB>
-0.52

>  <Class>
1

>  <MW>
221.99

>  <nHBAcc>
6

>  <nHBDon>
2

>  <SLogP>
-0.86

>  <TopoPSA>
115.04

>  <MMFF94 Energy>
-65.516

$$$$
CC1=C(/C=C/C(C)=C/C=C/C(C)=C\C(=O)O)C(C)(C)CCC1
Actelion Java MolfileCreator 2.0

  0  0  0  0  0  0              0 V3000
M  V30 BEGIN CTAB
M  V30 COUNTS 50 50 0 0 0
M  V30 BEGIN ATOM
M  V30 1 O -1.2484 0.8581 -5.471 0
M  V30 2 C -0.4239 0.9105 -6.3597 0
M  V30 3 O -0.6627 0.3701 -7.5684 0
M  V30 4 C 0.9123 1.5316 -6.3597 0
M  V30 5 C 1.5852 1.9971 -5.2905 0
M  V30 6 C 1.142 1.928 -3.9083 0
M  V30 7 C 2.9175 2.6804 -5.4612 0
M  V30 8 C 0.9177 0.7805 -3.2475 0
M  V30 9 C 0.5123 0.7464 -1.8565 0
M  V30 10 C 0.2718 -0.3429 -1.0957 0
M  V30 11 C -0.1327 -0.1369 0.2976 0
M  V30 12 C 0.3854 -1.7678 -1.578 0
M  V30 13 C -0.4066 -1.091 1.204 0
M  V30 14 C -0.7894 -0.7971 2.583 0
M  V30 15 C -1.9797 -0.2208 2.882 0
M  V30 16 C 0.2488 -1.1765 3.661 0
M  V30 17 C -2.368 0.1599 4.294 0
M  V30 18 C -3.0626 0.0931 1.8757 0
M  V30 19 C -0.3707 -1.117 5.0835 0
M  V30 20 C 0.7889 -2.6138 3.4766 0
M  V30 21 C 1.4428 -0.1982 3.5843 0
M  V30 22 C -1.2183 0.1279 5.2924 0
M  V30 23 H -1.5618 -0.0072 -7.4698 0
M  V30 24 H 1.3507 1.6237 -7.3491 0
M  V30 25 H 1.0482 2.8842 -3.3968 0
M  V30 26 H 2.8724 3.7119 -5.0944 0
M  V30 27 H 3.6971 2.1475 -4.9057 0
M  V30 28 H 3.2302 2.7187 -6.5103 0
M  V30 29 H 1.0407 -0.1598 -3.7739 0
M  V30 30 H 0.3923 1.7311 -1.4032 0
M  V30 31 H -0.2155 0.901 0.6219 0
M  V30 32 H 0.6837 -1.8574 -2.6243 0
M  V30 33 H 1.1345 -2.3119 -0.9918 0
M  V30 34 H -0.5772 -2.2825 -1.4827 0
M  V30 35 H -0.3279 -2.1456 0.9576 0
M  V30 36 H -2.8 1.1682 4.3008 0
M  V30 37 H -3.1556 -0.5265 4.6302 0
M  V30 38 H -4.0259 -0.2891 2.2312 0
M  V30 39 H -3.15 1.1766 1.7446 0
M  V30 40 H -2.8951 -0.3566 0.894 0
M  V30 41 H -1.0025 -1.9999 5.2542 0
M  V30 42 H 0.4172 -1.1526 5.8464 0
M  V30 43 H 1.4437 -2.8963 4.3095 0
M  V30 44 H -0.0287 -3.3428 3.4344 0
M  V30 45 H 1.3793 -2.7177 2.5594 0
M  V30 46 H 2.1562 -0.382 4.396 0
M  V30 47 H 1.9929 -0.3062 2.6424 0
M  V30 48 H 1.1203 0.8462 3.6549 0
M  V30 49 H -0.605 1.0302 5.1874 0
M  V30 50 H -1.6191 0.1411 6.3126 0
M  V30 END ATOM
M  V30 BEGIN BOND
M  V30 1 2 1 2
M  V30 2 1 2 3
M  V30 3 1 2 4
M  V30 4 2 4 5
M  V30 5 1 5 6
M  V30 6 1 5 7
M  V30 7 2 6 8
M  V30 8 1 8 9
M  V30 9 2 9 10
M  V30 10 1 10 11
M  V30 11 1 10 12
M  V30 12 2 11 13
M  V30 13 1 13 14
M  V30 14 2 14 15
M  V30 15 1 14 16
M  V30 16 1 15 17
M  V30 17 1 15 18
M  V30 18 1 16 19
M  V30 19 1 16 20
M  V30 20 1 16 21
M  V30 21 1 17 22
M  V30 22 1 19 22
M  V30 23 1 3 23
M  V30 24 1 4 24
M  V30 25 1 6 25
M  V30 26 1 7 26
M  V30 27 1 7 27
M  V30 28 1 7 28
M  V30 29 1 8 29
M  V30 30 1 9 30
M  V30 31 1 11 31
M  V30 32 1 12 32
M  V30 33 1 12 33
M  V30 34 1 12 34
M  V30 35 1 13 35
M  V30 36 1 17 36
M  V30 37 1 17 37
M  V30 38 1 18 38
M  V30 39 1 18 39
M  V30 40 1 18 40
M  V30 41 1 19 41
M  V30 42 1 19 42
M  V30 43 1 20 43
M  V30 44 1 20 44
M  V30 45 1 20 45
M  V30 46 1 21 46
M  V30 47 1 21 47
M  V30 48 1 21 48
M  V30 49 1 22 49
M  V30 50 1 22 50
M  V30 END BOND
M  V30 END CTAB
M  END
>  <level_0>
282

>  <index>
282

>  <NO.>
283

>  <Name>
isotretinoin (13-cis-retinoic acid)

>  <SMILES>
CC1=C(/C=C/C(C)=C/C=C/C(C)=C\C(=O)O)C(C)(C)CCC1

>  <logBB>
-0.49

>  <Class>
1

>  <MW>
300.21

>  <nHBAcc>
1

>  <nHBDon>
1

>  <SLogP>
5.6

>  <TopoPSA>
37.3

>  <MMFF94 Energy>
19.45

$$$$
Cc1cn(C2C=CC(CO)O2)c(=O)[nH]c1=O
Actelion Java MolfileCreator 2.0

  0  0  0  0  0  0              0 V3000
M  V30 BEGIN CTAB
M  V30 COUNTS 28 29 0 0 0
M  V30 BEGIN ATOM
M  V30 1 O -3.4133 0.2378 0.3171 0
M  V30 2 C -2.4899 -0.0888 -0.4254 0
M  V30 3 N -1.1469 0.0871 -0.1264 0
M  V30 4 N -2.7579 -0.6791 -1.6314 0
M  V30 5 C -0.1536 -0.3453 -0.9859 0
M  V30 6 C -0.8336 0.7065 1.1522 0
M  V30 7 C -1.8379 -1.1217 -2.5365 0
M  V30 8 C -0.4186 -0.9319 -2.1596 0
M  V30 9 O 0.4025 1.4481 1.0754 0
M  V30 10 C -0.5943 -0.3348 2.189 0
M  V30 11 O -2.165 -1.6493 -3.5935 0
M  V30 12 C 0.621 -1.4098 -3.1183 0
M  V30 13 C 1.2018 1.1074 2.238 0
M  V30 14 C 0.5636 -0.1079 2.808 0
M  V30 15 C 2.6466 0.898 1.7772 0
M  V30 16 O 3.1517 2.0955 1.1841 0
M  V30 17 H -3.7292 -0.8071 -1.8673 0
M  V30 18 H 0.8719 -0.1858 -0.6675 0
M  V30 19 H -1.6285 1.3928 1.465 0
M  V30 20 H -1.2914 -1.1262 2.4215 0
M  V30 21 H 1.6336 -1.2227 -2.7456 0
M  V30 22 H 0.5226 -2.4873 -3.2859 0
M  V30 23 H 0.5211 -0.8967 -4.0803 0
M  V30 24 H 1.1418 1.9512 2.9346 0
M  V30 25 H 0.9632 -0.6876 3.6272 0
M  V30 26 H 3.2962 0.6318 2.6167 0
M  V30 27 H 2.7136 0.1093 1.0206 0
M  V30 28 H 2.4482 2.4145 0.5859 0
M  V30 END ATOM
M  V30 BEGIN BOND
M  V30 1 2 1 2
M  V30 2 1 2 3
M  V30 3 1 2 4
M  V30 4 1 3 5
M  V30 5 1 3 6
M  V30 6 1 4 7
M  V30 7 2 5 8
M  V30 8 1 6 9
M  V30 9 1 6 10
M  V30 10 2 7 11
M  V30 11 1 8 12
M  V30 12 1 9 13
M  V30 13 2 10 14
M  V30 14 1 13 15
M  V30 15 1 15 16
M  V30 16 1 7 8
M  V30 17 1 13 14
M  V30 18 1 4 17
M  V30 19 1 5 18
M  V30 20 1 6 19
M  V30 21 1 10 20
M  V30 22 1 12 21
M  V30 23 1 12 22
M  V30 24 1 12 23
M  V30 25 1 13 24
M  V30 26 1 14 25
M  V30 27 1 15 26
M  V30 28 1 15 27
M  V30 29 1 16 28
M  V30 END BOND
M  V30 END CTAB
M  END
>  <level_0>
286

>  <index>
286

>  <NO.>
287

>  <Name>
stavudine

>  <SMILES>
Cc1cn(C2C=CC(CO)O2)c(=O)[nH]c1=O

>  <logBB>
-0.48

>  <Class>
1

>  <MW>
224.08

>  <nHBAcc>
4

>  <nHBDon>
2

>  <SLogP>
-0.71

>  <TopoPSA>
84.32

>  <MMFF94 Energy>
-77.721

$$$$
Cn1nnc2c(C(N)=O)ncn2c1=O
Actelion Java MolfileCreator 2.0

  0  0  0  0  0  0              0 V3000
M  V30 BEGIN CTAB
M  V30 COUNTS 20 21 0 0 0
M  V30 BEGIN ATOM
M  V30 1 O -0.7148 1.6685 -2.3843 0
M  V30 2 C -0.6328 0.7753 -1.5549 0
M  V30 3 N -1.2369 -0.4691 -1.5481 0
M  V30 4 N 0.1523 0.9462 -0.4329 0
M  V30 5 N -1.0811 -1.4149 -0.5598 0
M  V30 6 C -2.1078 -0.8549 -2.6391 0
M  V30 7 C 0.2982 -0.001 0.5406 0
M  V30 8 C 0.9048 2.0298 -0.0765 0
M  V30 9 N -0.3486 -1.1805 0.4282 0
M  V30 10 C 1.1563 0.557 1.4767 0
M  V30 11 N 1.5227 1.8329 1.0656 0
M  V30 12 C 1.6416 -0.0424 2.7213 0
M  V30 13 O 2.4042 0.5191 3.5018 0
M  V30 14 N 1.2001 -1.3071 3.0039 0
M  V30 15 H -1.7027 -1.754 -3.1125 0
M  V30 16 H -3.1024 -1.0698 -2.2372 0
M  V30 17 H -2.1889 -0.0625 -3.3878 0
M  V30 18 H 0.9608 2.9238 -0.6854 0
M  V30 19 H 0.5726 -1.8226 2.4035 0
M  V30 20 H 1.5285 -1.7307 3.8602 0
M  V30 END ATOM
M  V30 BEGIN BOND
M  V30 1 2 1 2
M  V30 2 1 2 3
M  V30 3 1 2 4
M  V30 4 1 3 5
M  V30 5 1 3 6
M  V30 6 1 4 7
M  V30 7 1 4 8
M  V30 8 2 5 9
M  V30 9 2 7 10
M  V30 10 2 8 11
M  V30 11 1 10 12
M  V30 12 2 12 13
M  V30 13 1 12 14
M  V30 14 1 7 9
M  V30 15 1 10 11
M  V30 16 1 6 15
M  V30 17 1 6 16
M  V30 18 1 6 17
M  V30 19 1 8 18
M  V30 20 1 14 19
M  V30 21 1 14 20
M  V30 END BOND
M  V30 END CTAB
M  END
>  <level_0>
289

>  <index>
289

>  <NO.>
290

>  <Name>
temozolomide

>  <SMILES>
Cn1nnc2c(C(N)=O)ncn2c1=O

>  <logBB>
-0.47

>  <Class>
1

>  <MW>
194.06

>  <nHBAcc>
5

>  <nHBDon>
1

>  <SLogP>
-2.08

>  <TopoPSA>
108.17

>  <MMFF94 Energy>
20.492

$$$$
CC(C)(C)NC(=O)[C@@]1(c2c(C(=O)O)[nH]c3cc(Cl)ccc23)N2C(=O)[C@]21c1ccc(OCc2ccc(Cl)cc2)cc1
Actelion Java MolfileCreator 2.0

  0  0  0  0  0  0              0 V3000
M  V30 BEGIN CTAB
M  V30 COUNTS 65 70 0 0 0
M  V30 BEGIN ATOM
M  V30 1 Cl -3.8282 0.8949 6.6861 0
M  V30 2 C -2.7265 0.4046 5.4555 0
M  V30 3 C -3.2284 -0.1485 4.2742 0
M  V30 4 C -1.359 0.5644 5.6578 0
M  V30 5 C -2.2995 -0.5351 3.2996 0
M  V30 6 C -0.4468 0.1739 4.6697 0
M  V30 7 N -2.4985 -1.1052 2.0651 0
M  V30 8 C -0.9245 -0.383 3.4659 0
M  V30 9 C -1.3003 -1.3525 1.4255 0
M  V30 10 C -0.3178 -0.8677 2.274 0
M  V30 11 C -1.2776 -1.9822 0.1376 0
M  V30 12 C 1.2293 -0.8532 2.0048 0 CFG=1
M  V30 13 O -2.2453 -2.2753 -0.5462 0
M  V30 14 O -0.0304 -2.2775 -0.2898 0
M  V30 15 N 1.9049 0.3872 2.2593 0
M  V30 16 C 1.8823 -2.1301 2.4635 0
M  V30 17 C 1.7888 -0.0825 0.8837 0 CFG=1
M  V30 18 C 3.0152 0.236 1.4834 0
M  V30 19 O 2.1227 -2.3145 3.6487 0
M  V30 20 N 2.1119 -3.0438 1.4577 0
M  V30 21 C 1.0902 0.7941 -0.1067 0
M  V30 22 O 4.1264 0.5735 1.2087 0
M  V30 23 C 2.7235 -4.366 1.6448 0
M  V30 24 C 0.1241 1.7574 0.2328 0
M  V30 25 C 1.3487 0.6229 -1.4794 0
M  V30 26 C 4.1251 -4.2463 2.2637 0
M  V30 27 C 1.8302 -5.2567 2.5211 0
M  V30 28 C 2.8626 -5.0231 0.2596 0
M  V30 29 C -0.5373 2.5093 -0.7437 0
M  V30 30 C 0.6923 1.3767 -2.4625 0
M  V30 31 C -0.2563 2.326 -2.0957 0
M  V30 32 O -0.9721 3.1241 -2.9415 0
M  V30 33 C -0.6633 3.0445 -4.3299 0
M  V30 34 C -1.5289 4.045 -5.0567 0
M  V30 35 C -2.7756 3.665 -5.5756 0
M  V30 36 C -1.1151 5.3794 -5.1854 0
M  V30 37 C -3.5826 4.5971 -6.2325 0
M  V30 38 C -1.9224 6.3111 -5.8422 0
M  V30 39 C -3.1513 5.9152 -6.3649 0
M  V30 40 Cl -4.1461 7.0626 -7.1739 0
M  V30 41 H -4.2952 -0.2751 4.1224 0
M  V30 42 H -0.9864 0.9907 6.5858 0
M  V30 43 H 0.6203 0.2934 4.8408 0
M  V30 44 H -3.4036 -1.3372 1.6752 0
M  V30 45 H -0.2278 -2.6694 -1.1693 0
M  V30 46 H 1.6753 -2.8472 0.5615 0
M  V30 47 H -0.1256 1.9403 1.2773 0
M  V30 48 H 2.0899 -0.1096 -1.7971 0
M  V30 49 H 4.0917 -3.8504 3.2836 0
M  V30 50 H 4.6205 -5.2226 2.3113 0
M  V30 51 H 4.7592 -3.575 1.6732 0
M  V30 52 H 2.2374 -6.271 2.5991 0
M  V30 53 H 1.7345 -4.8634 3.5385 0
M  V30 54 H 0.819 -5.3302 2.1043 0
M  V30 55 H 3.4864 -4.4138 -0.4048 0
M  V30 56 H 1.8853 -5.1344 -0.2247 0
M  V30 57 H 3.317 -6.0174 0.3311 0
M  V30 58 H -1.2763 3.2486 -0.4417 0
M  V30 59 H 0.951 1.194 -3.5001 0
M  V30 60 H -0.8692 2.0375 -4.7138 0
M  V30 61 H 0.3927 3.283 -4.5091 0
M  V30 62 H -3.1285 2.6419 -5.4644 0
M  V30 63 H -0.1637 5.7014 -4.7666 0
M  V30 64 H -4.5458 4.2907 -6.6313 0
M  V30 65 H -1.5901 7.3414 -5.936 0
M  V30 END ATOM
M  V30 BEGIN BOND
M  V30 1 1 1 2
M  V30 2 2 2 3
M  V30 3 1 2 4
M  V30 4 1 3 5
M  V30 5 2 4 6
M  V30 6 1 5 7
M  V30 7 2 5 8
M  V30 8 1 7 9
M  V30 9 1 8 10
M  V30 10 1 9 11
M  V30 11 1 10 12
M  V30 12 2 11 13
M  V30 13 1 11 14
M  V30 14 1 12 15
M  V30 15 1 12 16
M  V30 16 1 12 17
M  V30 17 1 15 18
M  V30 18 2 16 19
M  V30 19 1 16 20
M  V30 20 1 17 21
M  V30 21 2 18 22
M  V30 22 1 20 23
M  V30 23 2 21 24
M  V30 24 1 21 25
M  V30 25 1 23 26
M  V30 26 1 23 27
M  V30 27 1 23 28
M  V30 28 1 24 29
M  V30 29 2 25 30
M  V30 30 2 29 31
M  V30 31 1 31 32
M  V30 32 1 32 33
M  V30 33 1 33 34
M  V30 34 2 34 35
M  V30 35 1 34 36
M  V30 36 1 35 37
M  V30 37 2 36 38
M  V30 38 2 37 39
M  V30 39 1 39 40
M  V30 40 1 6 8
M  V30 41 2 9 10
M  V30 42 1 15 17
M  V30 43 1 17 18
M  V30 44 1 30 31
M  V30 45 1 38 39
M  V30 46 1 3 41
M  V30 47 1 4 42
M  V30 48 1 6 43
M  V30 49 1 7 44
M  V30 50 1 14 45
M  V30 51 1 20 46
M  V30 52 1 24 47
M  V30 53 1 25 48
M  V30 54 1 26 49
M  V30 55 1 26 50
M  V30 56 1 26 51
M  V30 57 1 27 52
M  V30 58 1 27 53
M  V30 59 1 27 54
M  V30 60 1 28 55
M  V30 61 1 28 56
M  V30 62 1 28 57
M  V30 63 1 29 58
M  V30 64 1 30 59
M  V30 65 1 33 60
M  V30 66 1 33 61
M  V30 67 1 35 62
M  V30 68 1 36 63
M  V30 69 1 37 64
M  V30 70 1 38 65
M  V30 END BOND
M  V30 BEGIN COLLECTION
M  V30 MDLV30/STEABS ATOMS=(2 12 17)
M  V30 END COLLECTION
M  V30 END CTAB
M  END
>  <level_0>
292

>  <index>
292

>  <NO.>
293

>  <Name>
y30

>  <SMILES>
CC(C)(C)NC(=O)[C@@]1(c2c(C(=O)O)[nH]c3cc(Cl)ccc23)N2C(=O)[C@]21c1ccc(OCc2ccc(Cl)cc2)cc1

>  <logBB>
-0.46

>  <Class>
1

>  <MW>
577.12

>  <nHBAcc>
4

>  <nHBDon>
3

>  <SLogP>
5.61

>  <TopoPSA>
111.5

>  <MMFF94 Energy>
66.406

$$$$
N[C@@]1(C(=O)O)CC(=O)[C@@H]2[C@H]1[C@@]2(F)C(=O)O
Actelion Java MolfileCreator 2.0

  0  0  0  0  0  0              0 V3000
M  V30 BEGIN CTAB
M  V30 COUNTS 23 24 0 0 0
M  V30 BEGIN ATOM
M  V30 1 F -2.0328 -0.894 -0.325 0
M  V30 2 C -0.9142 -1.319 0.3952 0 CFG=2
M  V30 3 C -0.8768 -2.7672 0.7379 0
M  V30 4 C -0.3411 -0.3005 1.3645 0 CFG=1
M  V30 5 C 0.3739 -0.5904 0.0808 0 CFG=2
M  V30 6 O -1.7017 -3.5833 0.3591 0
M  V30 7 O 0.1594 -3.1429 1.5215 0
M  V30 8 C -0.797 1.1019 1.2988 0
M  V30 9 C 0.4074 0.6792 -0.7308 0 CFG=2
M  V30 10 O -1.2317 1.7057 2.2641 0
M  V30 11 C -0.6218 1.6461 -0.099 0
M  V30 12 N 0.0987 0.3268 -2.1275 0
M  V30 13 C 1.7901 1.367 -0.6719 0
M  V30 14 O 2.6585 1.1872 0.1669 0
M  V30 15 O 1.9666 2.2837 -1.6525 0
M  V30 16 H 0.0876 -0.6384 2.2978 0
M  V30 17 H 1.3035 -1.1436 0.0954 0
M  V30 18 H 0.0238 -4.1074 1.6393 0
M  V30 19 H -0.2771 2.6837 -0.0617 0
M  V30 20 H -1.5963 1.607 -0.5977 0
M  V30 21 H 0.2226 1.1638 -2.7037 0
M  V30 22 H -0.8856 0.0683 -2.2113 0
M  V30 23 H 2.8766 2.6183 -1.5033 0
M  V30 END ATOM
M  V30 BEGIN BOND
M  V30 1 1 1 2
M  V30 2 1 2 3
M  V30 3 1 2 4
M  V30 4 1 2 5
M  V30 5 2 3 6
M  V30 6 1 3 7
M  V30 7 1 4 8
M  V30 8 1 5 9
M  V30 9 2 8 10
M  V30 10 1 8 11
M  V30 11 1 9 12
M  V30 12 1 9 13
M  V30 13 2 13 14
M  V30 14 1 13 15
M  V30 15 1 4 5
M  V30 16 1 9 11
M  V30 17 1 4 16
M  V30 18 1 5 17
M  V30 19 1 7 18
M  V30 20 1 11 19
M  V30 21 1 11 20
M  V30 22 1 12 21
M  V30 23 1 12 22
M  V30 24 1 15 23
M  V30 END BOND
M  V30 BEGIN COLLECTION
M  V30 MDLV30/STEABS ATOMS=(4 2 4 5 9)
M  V30 END COLLECTION
M  V30 END CTAB
M  END
>  <level_0>
307

>  <index>
307

>  <NO.>
308

>  <Name>
mgs0028

>  <SMILES>
N[C@@]1(C(=O)O)CC(=O)[C@@H]2[C@H]1[C@@]2(F)C(=O)O

>  <logBB>
-0.41

>  <Class>
1

>  <MW>
217.04

>  <nHBAcc>
4

>  <nHBDon>
3

>  <SLogP>
-1.22

>  <TopoPSA>
117.69

>  <MMFF94 Energy>
24.569

$$$$
NCCCS(=O)(=O)O
Actelion Java MolfileCreator 2.0

  0  0  0  0  0  0              0 V3000
M  V30 BEGIN CTAB
M  V30 COUNTS 17 16 0 0 0
M  V30 BEGIN ATOM
M  V30 1 S -0.7969 -1.3551 0.7969 0
M  V30 2 O -1.8416 -1.8958 1.6371 0
M  V30 3 O 0.4801 -2.0076 0.6372 0
M  V30 4 O -1.4675 -1.2176 -0.6648 0
M  V30 5 C -0.5909 0.3794 1.1605 0
M  V30 6 C 0.6631 1.0321 0.5911 0
M  V30 7 C 0.7601 1.0246 -0.9351 0
M  V30 8 N 1.5565 -0.09 -1.4202 0
M  V30 9 H -2.3206 -1.7042 -0.648 0
M  V30 10 H -0.5605 0.45 2.254 0
M  V30 11 H -1.4984 0.8959 0.8304 0
M  V30 12 H 1.5576 0.5799 1.0377 0
M  V30 13 H 0.6621 2.0785 0.9233 0
M  V30 14 H 1.2545 1.9457 -1.2632 0
M  V30 15 H -0.2341 1.018 -1.3931 0
M  V30 16 H 1.4214 -0.2096 -2.4227 0
M  V30 17 H 1.2783 -0.9754 -0.9859 0
M  V30 END ATOM
M  V30 BEGIN BOND
M  V30 1 2 1 2
M  V30 2 2 1 3
M  V30 3 1 1 4
M  V30 4 1 1 5
M  V30 5 1 5 6
M  V30 6 1 6 7
M  V30 7 1 7 8
M  V30 8 1 4 9
M  V30 9 1 5 10
M  V30 10 1 5 11
M  V30 11 1 6 12
M  V30 12 1 6 13
M  V30 13 1 7 14
M  V30 14 1 7 15
M  V30 15 1 8 16
M  V30 16 1 8 17
M  V30 END BOND
M  V30 END CTAB
M  END
>  <level_0>
315

>  <index>
315

>  <NO.>
316

>  <Name>
tramiprosate, alzhemed

>  <SMILES>
NCCCS(=O)(=O)O

>  <logBB>
-0.4

>  <Class>
1

>  <MW>
139.03

>  <nHBAcc>
3

>  <nHBDon>
2

>  <SLogP>
-0.78

>  <TopoPSA>
80.39

>  <MMFF94 Energy>
-58.614

$$$$
CC(C)Oc1cccc(CC(=O)N2CCC[C@](CC[N+]34CCC(c5ccccc5)(CC3)CC4)(c3ccc(Cl)c(Cl)c3)C2)c1
Actelion Java MolfileCreator 2.0

  0  0  0  0  0  0              0 V3000
M  V30 BEGIN CTAB
M  V30 COUNTS 88 93 0 0 0
M  V30 BEGIN ATOM
M  V30 1 Cl -3.0689 -4.606 4.606 0
M  V30 2 C -3.5586 -4.2751 2.9836 0
M  V30 3 C -4.139 -5.2406 2.1632 0
M  V30 4 C -3.3341 -2.9817 2.4891 0
M  V30 5 Cl -4.4346 -6.856 2.6904 0
M  V30 6 C -4.4891 -4.9048 0.8556 0
M  V30 7 C -3.674 -2.621 1.1672 0
M  V30 8 C -4.2567 -3.6138 0.3627 0
M  V30 9 C -3.3727 -1.1958 0.6526 0 CFG=2
M  V30 10 C -4.0906 -0.1488 1.5688 0
M  V30 11 C -3.9144 -0.9325 -0.7924 0
M  V30 12 C -1.8231 -0.9463 0.7265 0
M  V30 13 N -3.834 1.2157 1.0956 0
M  V30 14 C -3.794 0.5282 -1.25 0
M  V30 15 C -0.9676 -1.9077 -0.103 0
M  V30 16 C -2.9687 2.0173 1.831 0
M  V30 17 C -4.385 1.4994 -0.2263 0
M  V30 18 N 0.5547 -1.6335 0.0063 0 CHG=1
M  V30 19 O -2.3994 1.572 2.8349 0
M  V30 20 C -2.6565 3.4341 1.3669 0
M  V30 21 C 1.26 -2.583 -0.9722 0
M  V30 22 C 1.0774 -1.9175 1.4191 0
M  V30 23 C 0.9008 -0.1869 -0.375 0
M  V30 24 C -1.2448 3.5413 0.8337 0
M  V30 25 C 2.7713 -2.4295 -0.8535 0
M  V30 26 C 2.575 -1.6223 1.4828 0
M  V30 27 C 2.4162 -0.0174 -0.4422 0
M  V30 28 C -0.9491 3.2193 -0.4972 0
M  V30 29 C -0.197 3.9213 1.6839 0
M  V30 30 C 3.1522 -1.2673 0.0923 0
M  V30 31 C 0.3632 3.2836 -0.9701 0
M  V30 32 C 1.114 3.9871 1.2102 0
M  V30 33 C 4.6583 -1.0039 0.1939 0
M  V30 34 O 0.5622 2.858 -2.2545 0
M  V30 35 C 1.397 3.6618 -0.1156 0
M  V30 36 C 5.6122 -1.7694 -0.498 0
M  V30 37 C 5.1398 0.0373 1.0132 0
M  V30 38 C 1.4155 3.7001 -3.0491 0
M  V30 39 C 6.9807 -1.5026 -0.3814 0
M  V30 40 C 6.5068 0.3033 1.1296 0
M  V30 41 C 2.6757 2.9163 -3.3985 0
M  V30 42 C 0.6416 4.0594 -4.3139 0
M  V30 43 C 7.4277 -0.4667 0.4307 0
M  V30 44 H -2.8855 -2.2516 3.1627 0
M  V30 45 H -4.9501 -5.6486 0.2075 0
M  V30 46 H -4.5562 -3.4218 -0.6652 0
M  V30 47 H -3.7817 -0.2509 2.6139 0
M  V30 48 H -5.1775 -0.3065 1.5562 0
M  V30 49 H -4.9818 -1.1918 -0.8309 0
M  V30 50 H -3.4159 -1.5751 -1.5267 0
M  V30 51 H -1.511 -0.9858 1.775 0
M  V30 52 H -1.6122 0.0723 0.394 0
M  V30 53 H -2.7394 0.7652 -1.4256 0
M  V30 54 H -4.3058 0.6545 -2.211 0
M  V30 55 H -1.2133 -1.8208 -1.1664 0
M  V30 56 H -1.1124 -2.9476 0.2075 0
M  V30 57 H -4.1963 2.521 -0.552 0
M  V30 58 H -5.4721 1.3721 -0.165 0
M  V30 59 H -2.7693 4.0877 2.2423 0
M  V30 60 H -3.3699 3.8259 0.6418 0
M  V30 61 H 0.9466 -3.6063 -0.7351 0
M  V30 62 H 0.9136 -2.3318 -1.9817 0
M  V30 63 H 0.5388 -1.2798 2.1254 0
M  V30 64 H 0.8611 -2.9672 1.6473 0
M  V30 65 H 0.4866 0.4651 0.3996 0
M  V30 66 H 0.4244 0.0311 -1.3367 0
M  V30 67 H 3.1808 -2.273 -1.86 0
M  V30 68 H 3.197 -3.3759 -0.4943 0
M  V30 69 H 3.0962 -2.4895 1.9095 0
M  V30 70 H 2.735 -0.804 2.1965 0
M  V30 71 H 2.7168 0.184 -1.4791 0
M  V30 72 H 2.6844 0.8856 0.1178 0
M  V30 73 H -1.74 2.9282 -1.1821 0
M  V30 74 H -0.3968 4.1657 2.7268 0
M  V30 75 H 1.9155 4.2897 1.8807 0
M  V30 76 H 2.4273 3.6971 -0.4556 0
M  V30 77 H 5.3298 -2.5951 -1.1447 0
M  V30 78 H 4.4582 0.6649 1.5834 0
M  V30 79 H 1.6832 4.6337 -2.538 0
M  V30 80 H 7.701 -2.1088 -0.9265 0
M  V30 81 H 6.8529 1.1119 1.7695 0
M  V30 82 H 3.3396 3.5 -4.0433 0
M  V30 83 H 3.2262 2.6419 -2.493 0
M  V30 84 H 2.4262 1.9787 -3.9078 0
M  V30 85 H 1.2412 4.684 -4.9831 0
M  V30 86 H -0.2743 4.6029 -4.0574 0
M  V30 87 H 0.3316 3.1591 -4.8559 0
M  V30 88 H 8.4919 -0.2629 0.5208 0
M  V30 END ATOM
M  V30 BEGIN BOND
M  V30 1 1 1 2
M  V30 2 2 2 3
M  V30 3 1 2 4
M  V30 4 1 3 5
M  V30 5 1 3 6
M  V30 6 2 4 7
M  V30 7 2 6 8
M  V30 8 1 7 9
M  V30 9 1 9 10
M  V30 10 1 9 11
M  V30 11 1 9 12
M  V30 12 1 10 13
M  V30 13 1 11 14
M  V30 14 1 12 15
M  V30 15 1 13 16
M  V30 16 1 13 17
M  V30 17 1 15 18
M  V30 18 2 16 19
M  V30 19 1 16 20
M  V30 20 1 18 21
M  V30 21 1 18 22
M  V30 22 1 18 23
M  V30 23 1 20 24
M  V30 24 1 21 25
M  V30 25 1 22 26
M  V30 26 1 23 27
M  V30 27 2 24 28
M  V30 28 1 24 29
M  V30 29 1 25 30
M  V30 30 1 28 31
M  V30 31 2 29 32
M  V30 32 1 30 33
M  V30 33 1 31 34
M  V30 34 2 31 35
M  V30 35 2 33 36
M  V30 36 1 33 37
M  V30 37 1 34 38
M  V30 38 1 36 39
M  V30 39 2 37 40
M  V30 40 1 38 41
M  V30 41 1 38 42
M  V30 42 2 39 43
M  V30 43 1 7 8
M  V30 44 1 14 17
M  V30 45 1 26 30
M  V30 46 1 27 30
M  V30 47 1 32 35
M  V30 48 1 40 43
M  V30 49 1 4 44
M  V30 50 1 6 45
M  V30 51 1 8 46
M  V30 52 1 10 47
M  V30 53 1 10 48
M  V30 54 1 11 49
M  V30 55 1 11 50
M  V30 56 1 12 51
M  V30 57 1 12 52
M  V30 58 1 14 53
M  V30 59 1 14 54
M  V30 60 1 15 55
M  V30 61 1 15 56
M  V30 62 1 17 57
M  V30 63 1 17 58
M  V30 64 1 20 59
M  V30 65 1 20 60
M  V30 66 1 21 61
M  V30 67 1 21 62
M  V30 68 1 22 63
M  V30 69 1 22 64
M  V30 70 1 23 65
M  V30 71 1 23 66
M  V30 72 1 25 67
M  V30 73 1 25 68
M  V30 74 1 26 69
M  V30 75 1 26 70
M  V30 76 1 27 71
M  V30 77 1 27 72
M  V30 78 1 28 73
M  V30 79 1 29 74
M  V30 80 1 32 75
M  V30 81 1 35 76
M  V30 82 1 36 77
M  V30 83 1 37 78
M  V30 84 1 38 79
M  V30 85 1 39 80
M  V30 86 1 40 81
M  V30 87 1 41 82
M  V30 88 1 41 83
M  V30 89 1 41 84
M  V30 90 1 42 85
M  V30 91 1 42 86
M  V30 92 1 42 87
M  V30 93 1 43 88
M  V30 END BOND
M  V30 BEGIN COLLECTION
M  V30 MDLV30/STEABS ATOMS=(1 9)
M  V30 END COLLECTION
M  V30 END CTAB
M  END
>  <level_0>
322

>  <index>
322

>  <NO.>
323

>  <Name>
nolpitantium

>  <SMILES>
CC(C)Oc1cccc(CC(=O)N2CCC[C@](CC[N+]34CCC(c5ccccc5)(CC3)CC4)(c3ccc(Cl)c(Cl)c3)C2)c1

>  <logBB>
-0.37

>  <Class>
1

>  <MW>
619.29

>  <nHBAcc>
2

>  <nHBDon>
0

>  <SLogP>
8.23

>  <TopoPSA>
29.54

>  <MMFF94 Energy>
123.16

$$$$
CN(C)S(=O)(=O)c1ccc(-c2ccc3cc(O)ccc3c2Oc2ccc(OCCN3CCCCC3)cc2)cc1
Actelion Java MolfileCreator 2.0

  0  0  0  0  0  0              0 V3000
M  V30 BEGIN CTAB
M  V30 COUNTS 73 77 0 0 0
M  V30 BEGIN ATOM
M  V30 1 S 0.6434 3.0589 -3.1395 0
M  V30 2 O 0.7222 4.473 -2.8405 0
M  V30 3 O 0.6276 2.5787 -4.5059 0
M  V30 4 N 1.9407 2.269 -2.3409 0
M  V30 5 C -0.7863 2.4275 -2.3001 0
M  V30 6 C 1.9668 0.797 -2.5041 0
M  V30 7 C 3.2559 2.8712 -2.6566 0
M  V30 8 C -1.7789 1.7507 -3.0104 0
M  V30 9 C -0.8893 2.6041 -0.9196 0
M  V30 10 C -2.8766 1.2248 -2.323 0
M  V30 11 C -1.9867 2.0717 -0.2416 0
M  V30 12 C -2.9897 1.3618 -0.9285 0
M  V30 13 C -4.1142 0.7598 -0.1883 0
M  V30 14 C -4.3679 -0.6319 -0.1595 0
M  V30 15 C -4.9761 1.5937 0.5401 0
M  V30 16 O -3.5901 -1.5186 -0.8868 0
M  V30 17 C -5.4718 -1.1785 0.5472 0
M  V30 18 C -6.0561 1.0729 1.2573 0
M  V30 19 C -2.275 -1.6949 -0.5149 0
M  V30 20 C -6.3179 -0.3032 1.2685 0
M  V30 21 C -5.7646 -2.5604 0.5723 0
M  V30 22 C -1.422 -2.1405 -1.5253 0
M  V30 23 C -1.7724 -1.4802 0.7695 0
M  V30 24 C -7.413 -0.8172 1.985 0
M  V30 25 C -6.8544 -3.059 1.2872 0
M  V30 26 C -0.0616 -2.3104 -1.2684 0
M  V30 27 C -0.4047 -1.6382 1.0214 0
M  V30 28 C -7.6693 -2.1846 1.9875 0
M  V30 29 C 0.4579 -2.0275 -0.0044 0
M  V30 30 O -8.7238 -2.7108 2.673 0
M  V30 31 O 1.8126 -2.1771 0.1083 0
M  V30 32 C 2.4316 -1.4953 1.2071 0
M  V30 33 C 3.9517 -1.5098 0.9753 0
M  V30 34 N 4.738 -0.8967 2.0611 0
M  V30 35 C 4.5411 0.5551 2.1966 0
M  V30 36 C 6.1728 -1.2029 1.9265 0
M  V30 37 C 5.1611 1.3769 1.0639 0
M  V30 38 C 6.8647 -0.4523 0.7848 0
M  V30 39 C 6.6415 1.0526 0.8939 0
M  V30 40 H 1.0074 0.3545 -2.2298 0
M  V30 41 H 2.2169 0.5176 -3.5317 0
M  V30 42 H 2.7188 0.3682 -1.8335 0
M  V30 43 H 3.2756 3.9241 -2.3608 0
M  V30 44 H 3.4829 2.7833 -3.7234 0
M  V30 45 H 4.0446 2.3646 -2.0912 0
M  V30 46 H -1.7047 1.6192 -4.0873 0
M  V30 47 H -0.1157 3.1374 -0.3718 0
M  V30 48 H -3.6422 0.687 -2.8799 0
M  V30 49 H -2.0451 2.1904 0.8388 0
M  V30 50 H -4.818 2.6714 0.5428 0
M  V30 51 H -6.699 1.7617 1.8025 0
M  V30 52 H -5.1369 -3.2649 0.0299 0
M  V30 53 H -1.8135 -2.3359 -2.5199 0
M  V30 54 H -2.4251 -1.1793 1.5839 0
M  V30 55 H -8.0608 -0.142 2.537 0
M  V30 56 H -7.0626 -4.125 1.2945 0
M  V30 57 H 0.599 -2.6436 -2.0642 0
M  V30 58 H -0.0453 -1.4549 2.0288 0
M  V30 59 H -9.2105 -1.9887 3.1027 0
M  V30 60 H 2.1972 -2.0171 2.1424 0
M  V30 61 H 2.0686 -0.4624 1.2498 0
M  V30 62 H 4.2424 -2.5643 0.8725 0
M  V30 63 H 4.1694 -1.057 5.0E-4 0
M  V30 64 H 4.9916 0.872 3.147 0
M  V30 65 H 3.4794 0.8032 2.2959 0
M  V30 66 H 6.322 -2.2827 1.8043 0
M  V30 67 H 6.6696 -0.9476 2.8719 0
M  V30 68 H 5.0441 2.4454 1.2793 0
M  V30 69 H 4.63 1.187 0.1243 0
M  V30 70 H 6.4928 -0.8102 -0.1824 0
M  V30 71 H 7.9398 -0.6646 0.8053 0
M  V30 72 H 7.0377 1.5574 0.006 0
M  V30 73 H 7.1979 1.4391 1.7569 0
M  V30 END ATOM
M  V30 BEGIN BOND
M  V30 1 2 1 2
M  V30 2 2 1 3
M  V30 3 1 1 4
M  V30 4 1 1 5
M  V30 5 1 4 6
M  V30 6 1 4 7
M  V30 7 2 5 8
M  V30 8 1 5 9
M  V30 9 1 8 10
M  V30 10 2 9 11
M  V30 11 2 10 12
M  V30 12 1 12 13
M  V30 13 2 13 14
M  V30 14 1 13 15
M  V30 15 1 14 16
M  V30 16 1 14 17
M  V30 17 2 15 18
M  V30 18 1 16 19
M  V30 19 1 17 20
M  V30 20 2 17 21
M  V30 21 2 19 22
M  V30 22 1 19 23
M  V30 23 2 20 24
M  V30 24 1 21 25
M  V30 25 1 22 26
M  V30 26 2 23 27
M  V30 27 1 24 28
M  V30 28 2 26 29
M  V30 29 1 28 30
M  V30 30 1 29 31
M  V30 31 1 31 32
M  V30 32 1 32 33
M  V30 33 1 33 34
M  V30 34 1 34 35
M  V30 35 1 34 36
M  V30 36 1 35 37
M  V30 37 1 36 38
M  V30 38 1 37 39
M  V30 39 1 11 12
M  V30 40 1 18 20
M  V30 41 2 25 28
M  V30 42 1 27 29
M  V30 43 1 38 39
M  V30 44 1 6 40
M  V30 45 1 6 41
M  V30 46 1 6 42
M  V30 47 1 7 43
M  V30 48 1 7 44
M  V30 49 1 7 45
M  V30 50 1 8 46
M  V30 51 1 9 47
M  V30 52 1 10 48
M  V30 53 1 11 49
M  V30 54 1 15 50
M  V30 55 1 18 51
M  V30 56 1 21 52
M  V30 57 1 22 53
M  V30 58 1 23 54
M  V30 59 1 24 55
M  V30 60 1 25 56
M  V30 61 1 26 57
M  V30 62 1 27 58
M  V30 63 1 30 59
M  V30 64 1 32 60
M  V30 65 1 32 61
M  V30 66 1 33 62
M  V30 67 1 33 63
M  V30 68 1 35 64
M  V30 69 1 35 65
M  V30 70 1 36 66
M  V30 71 1 36 67
M  V30 72 1 37 68
M  V30 73 1 37 69
M  V30 74 1 38 70
M  V30 75 1 38 71
M  V30 76 1 39 72
M  V30 77 1 39 73
M  V30 END BOND
M  V30 END CTAB
M  END
>  <level_0>
324

>  <index>
324

>  <NO.>
325

>  <Name>
chembl243571

>  <SMILES>
CN(C)S(=O)(=O)c1ccc(-c2ccc3cc(O)ccc3c2Oc2ccc(OCCN3CCCCC3)cc2)cc1

>  <logBB>
-0.37

>  <Class>
1

>  <MW>
546.22

>  <nHBAcc>
6

>  <nHBDon>
1

>  <SLogP>
6.12

>  <TopoPSA>
79.31

>  <MMFF94 Energy>
63.589

$$$$
Cn1c(=O)c2[nH]cnc2n(C)c1=O
Actelion Java MolfileCreator 2.0

  0  0  0  0  0  0              0 V3000
M  V30 BEGIN CTAB
M  V30 COUNTS 21 22 0 0 0
M  V30 BEGIN ATOM
M  V30 1 O -2.4499 1.0268 -0.4738 0
M  V30 2 C -1.3584 0.4908 -0.2602 0
M  V30 3 N -1.2721 -0.8891 0.0278 0
M  V30 4 N -0.1626 1.2125 -0.2915 0
M  V30 5 C -0.0938 -1.5943 0.2841 0
M  V30 6 C -2.5242 -1.6189 0.0555 0
M  V30 7 C 1.0209 0.5607 -0.0455 0
M  V30 8 C -0.164 2.6348 -0.5799 0
M  V30 9 O -0.028 -2.7933 0.5336 0
M  V30 10 C 1.0569 -0.7697 0.2276 0
M  V30 11 N 2.2671 1.11 -0.037 0
M  V30 12 N 2.3744 -1.068 0.4148 0
M  V30 13 C 3.069 0.1019 0.2444 0
M  V30 14 H -3.0127 -1.5236 -0.9198 0
M  V30 15 H -3.179 -1.1727 0.8113 0
M  V30 16 H -2.388 -2.6788 0.2835 0
M  V30 17 H 0.2699 3.172 0.2694 0
M  V30 18 H -1.1741 3.0147 -0.7539 0
M  V30 19 H 0.4376 2.8182 -1.4756 0
M  V30 20 H 2.7574 -1.9783 0.6362 0
M  V30 21 H 4.1461 0.1547 0.3373 0
M  V30 END ATOM
M  V30 BEGIN BOND
M  V30 1 2 1 2
M  V30 2 1 2 3
M  V30 3 1 2 4
M  V30 4 1 3 5
M  V30 5 1 3 6
M  V30 6 1 4 7
M  V30 7 1 4 8
M  V30 8 2 5 9
M  V30 9 1 5 10
M  V30 10 1 7 11
M  V30 11 1 10 12
M  V30 12 2 11 13
M  V30 13 2 7 10
M  V30 14 1 12 13
M  V30 15 1 6 14
M  V30 16 1 6 15
M  V30 17 1 6 16
M  V30 18 1 8 17
M  V30 19 1 8 18
M  V30 20 1 8 19
M  V30 21 1 12 20
M  V30 22 1 13 21
M  V30 END BOND
M  V30 END CTAB
M  END
>  <level_0>
338

>  <index>
338

>  <NO.>
339

>  <Name>
theophylline

>  <SMILES>
Cn1c(=O)c2[nH]cnc2n(C)c1=O

>  <logBB>
-0.3

>  <Class>
1

>  <MW>
180.06

>  <nHBAcc>
3

>  <nHBDon>
1

>  <SLogP>
-1.04

>  <TopoPSA>
72.68

>  <MMFF94 Energy>
-126.22

$$$$
CC1(C)SSC(C)(C)[C@@H](C(=O)O)NC(=O)C(Cc2ccccc2)NC(=O)CNC(=O)[C@@H]1NC(=O)C(N)Cc1ccc(O)cc1
Actelion Java MolfileCreator 2.0

  0  0  0  0  0  0              0 V3000
M  V30 BEGIN CTAB
M  V30 COUNTS 83 85 0 0 0
M  V30 BEGIN ATOM
M  V30 1 S 2.9773 -1.8499 -0.4823 0
M  V30 2 S 0.9553 -1.9435 -0.1665 0
M  V30 3 C 3.6975 -0.6884 0.7995 0
M  V30 4 C 0.5522 -3.6677 0.4837 0
M  V30 5 C 2.8996 0.6401 1.0044 0 CFG=1
M  V30 6 C 3.9699 -1.4584 2.098 0
M  V30 7 C 5.0847 -0.318 0.2099 0
M  V30 8 C -1.0059 -3.7761 0.5738 0 CFG=2
M  V30 9 C 1.09 -4.7066 -0.5175 0
M  V30 10 C 1.227 -3.8718 1.8461 0
M  V30 11 N 2.4792 1.2442 -0.2689 0
M  V30 12 C 1.6935 0.6214 1.9873 0
M  V30 13 N -1.6205 -2.7176 1.3867 0
M  V30 14 C -1.4747 -5.0995 1.1778 0
M  V30 15 C 2.9424 2.4512 -0.745 0
M  V30 16 O 1.6307 -0.0764 2.9943 0
M  V30 17 N 0.7556 1.6114 1.7481 0
M  V30 18 C -2.42 -1.735 0.8405 0
M  V30 19 O -1.6304 -5.335 2.3673 0
M  V30 20 O -1.7056 -6.059 0.2605 0
M  V30 21 O 3.7813 3.1266 -0.1611 0
M  V30 22 C 2.2832 2.8485 -2.0808 0
M  V30 23 C -0.2009 2.0183 2.7671 0
M  V30 24 O -2.6524 -1.6664 -0.364 0
M  V30 25 C -2.812 -0.6366 1.8399 0
M  V30 26 N 0.8076 2.8265 -1.8844 0
M  V30 27 C 2.8094 4.21 -2.5684 0
M  V30 28 C -1.4368 1.1267 2.9137 0
M  V30 29 N -1.6756 0.284 1.8579 0
M  V30 30 C -4.1087 0.0722 1.4267 0
M  V30 31 C 2.2626 4.6108 -3.9197 0
M  V30 32 O -2.213 1.2361 3.8605 0
M  V30 33 C -5.3298 -0.7763 1.696 0
M  V30 34 C 2.708 3.9702 -5.0857 0
M  V30 35 C 1.2929 5.6181 -4.0241 0
M  V30 36 C -5.8958 -1.5572 0.6802 0
M  V30 37 C -5.8926 -0.8143 2.9793 0
M  V30 38 C 2.1897 4.3256 -6.3331 0
M  V30 39 C 0.7749 5.972 -5.2706 0
M  V30 40 C -7.0085 -2.3575 0.9423 0
M  V30 41 C -7.0054 -1.615 3.2389 0
M  V30 42 C 1.2252 5.3241 -6.4137 0
M  V30 43 C -7.5633 -2.3859 2.2207 0
M  V30 44 O 0.691 5.7022 -7.6094 0
M  V30 45 H 3.5826 1.3535 1.4883 0
M  V30 46 H 4.6647 -2.2916 1.9366 0
M  V30 47 H 4.4265 -0.8019 2.8481 0
M  V30 48 H 3.0666 -1.8805 2.539 0
M  V30 49 H 5.0024 0.1969 -0.7543 0
M  V30 50 H 5.7184 -1.2014 0.0627 0
M  V30 51 H 5.6279 0.351 0.8885 0
M  V30 52 H -1.4364 -3.72 -0.4345 0
M  V30 53 H 0.8718 -5.7267 -0.1833 0
M  V30 54 H 2.1778 -4.655 -0.6294 0
M  V30 55 H 0.6396 -4.5823 -1.5089 0
M  V30 56 H 0.9738 -4.8471 2.275 0
M  V30 57 H 0.9285 -3.1072 2.5713 0
M  V30 58 H 2.3179 -3.8631 1.7608 0
M  V30 59 H 1.7533 0.7752 -0.8073 0
M  V30 60 H -1.4875 -2.7495 2.3935 0
M  V30 61 H 0.8713 2.1809 0.9161 0
M  V30 62 H -2.0326 -6.8225 0.7825 0
M  V30 63 H 2.5385 2.0649 -2.8051 0
M  V30 64 H -0.5428 3.0241 2.5034 0
M  V30 65 H 0.3103 2.0565 3.7347 0
M  V30 66 H -2.9109 -1.0713 2.8424 0
M  V30 67 H 0.3752 2.9216 -2.8088 0
M  V30 68 H 0.5389 3.6853 -1.3998 0
M  V30 69 H 2.5822 4.9899 -1.8288 0
M  V30 70 H 3.9054 4.1855 -2.6348 0
M  V30 71 H -0.9942 0.2509 1.1063 0
M  V30 72 H -4.0824 0.3619 0.3682 0
M  V30 73 H -4.2212 1.016 1.9765 0
M  V30 74 H 3.4658 3.1915 -5.0306 0
M  V30 75 H 0.9346 6.1381 -3.1387 0
M  V30 76 H -5.4703 -1.5494 -0.3218 0
M  V30 77 H -5.4656 -0.2179 3.7842 0
M  V30 78 H 2.5491 3.8175 -7.2222 0
M  V30 79 H 0.0244 6.7536 -5.3504 0
M  V30 80 H -7.4419 -2.959 0.1478 0
M  V30 81 H -7.4369 -1.6365 4.2362 0
M  V30 82 H -8.4304 -3.0087 2.4235 0
M  V30 83 H 1.1086 5.1816 -8.3147 0
M  V30 END ATOM
M  V30 BEGIN BOND
M  V30 1 1 1 2
M  V30 2 1 1 3
M  V30 3 1 2 4
M  V30 4 1 3 5
M  V30 5 1 3 6
M  V30 6 1 3 7
M  V30 7 1 4 8
M  V30 8 1 4 9
M  V30 9 1 4 10
M  V30 10 1 5 11
M  V30 11 1 5 12
M  V30 12 1 8 13
M  V30 13 1 8 14
M  V30 14 1 11 15
M  V30 15 2 12 16
M  V30 16 1 12 17
M  V30 17 1 13 18
M  V30 18 2 14 19
M  V30 19 1 14 20
M  V30 20 2 15 21
M  V30 21 1 15 22
M  V30 22 1 17 23
M  V30 23 2 18 24
M  V30 24 1 18 25
M  V30 25 1 22 26
M  V30 26 1 22 27
M  V30 27 1 23 28
M  V30 28 1 25 29
M  V30 29 1 25 30
M  V30 30 1 27 31
M  V30 31 2 28 32
M  V30 32 1 30 33
M  V30 33 2 31 34
M  V30 34 1 31 35
M  V30 35 2 33 36
M  V30 36 1 33 37
M  V30 37 1 34 38
M  V30 38 2 35 39
M  V30 39 1 36 40
M  V30 40 2 37 41
M  V30 41 2 38 42
M  V30 42 2 40 43
M  V30 43 1 42 44
M  V30 44 1 28 29
M  V30 45 1 39 42
M  V30 46 1 41 43
M  V30 47 1 5 45
M  V30 48 1 6 46
M  V30 49 1 6 47
M  V30 50 1 6 48
M  V30 51 1 7 49
M  V30 52 1 7 50
M  V30 53 1 7 51
M  V30 54 1 8 52
M  V30 55 1 9 53
M  V30 56 1 9 54
M  V30 57 1 9 55
M  V30 58 1 10 56
M  V30 59 1 10 57
M  V30 60 1 10 58
M  V30 61 1 11 59
M  V30 62 1 13 60
M  V30 63 1 17 61
M  V30 64 1 20 62
M  V30 65 1 22 63
M  V30 66 1 23 64
M  V30 67 1 23 65
M  V30 68 1 25 66
M  V30 69 1 26 67
M  V30 70 1 26 68
M  V30 71 1 27 69
M  V30 72 1 27 70
M  V30 73 1 29 71
M  V30 74 1 30 72
M  V30 75 1 30 73
M  V30 76 1 34 74
M  V30 77 1 35 75
M  V30 78 1 36 76
M  V30 79 1 37 77
M  V30 80 1 38 78
M  V30 81 1 39 79
M  V30 82 1 40 80
M  V30 83 1 41 81
M  V30 84 1 43 82
M  V30 85 1 44 83
M  V30 END BOND
M  V30 BEGIN COLLECTION
M  V30 MDLV30/STEABS ATOMS=(2 5 8)
M  V30 END COLLECTION
M  V30 END CTAB
M  END
>  <level_0>
348

>  <index>
348

>  <NO.>
349

>  <Name>
dpdpe

>  <SMILES>
CC1(C)SSC(C)(C)[C@@H](C(=O)O)NC(=O)C(Cc2ccccc2)NC(=O)CNC(=O)[C@@H]1NC(=O)C(N)Cc1ccc(O)cc1

>  <logBB>
-0.3

>  <Class>
1

>  <MW>
645.23

>  <nHBAcc>
9

>  <nHBDon>
7

>  <SLogP>
1.11

>  <TopoPSA>
199.95

>  <MMFF94 Energy>
138.14

$$$$
CC1(C)SSC(C)(C)[C@@H](NC(=O)[C@@H](N)Cc2ccc(O)cc2)C(=O)NCC(=O)N[C@@H](Cc2ccccc2)C(=O)N[C@H]1C(=O)O
Actelion Java MolfileCreator 2.0

  0  0  0  0  0  0              0 V3000
M  V30 BEGIN CTAB
M  V30 COUNTS 83 85 0 0 0
M  V30 BEGIN ATOM
M  V30 1 S -2.2533 0.3216 -2.0116 0
M  V30 2 S -4.0301 0.8573 -1.1391 0
M  V30 3 C -0.9604 1.5605 -1.4332 0
M  V30 4 C -4.7962 -0.7041 -0.4659 0
M  V30 5 C 0.3865 1.2172 -2.16 0 CFG=1
M  V30 6 C -1.4183 2.966 -1.8837 0
M  V30 7 C -0.8764 1.5415 0.0938 0
M  V30 8 C -4.0654 -1.3463 0.747 0 CFG=1
M  V30 9 C -6.2291 -0.2852 -0.0613 0
M  V30 10 C -4.9421 -1.7343 -1.6073 0
M  V30 11 N 1.4843 2.1797 -1.9609 0
M  V30 12 C 0.8486 -0.2577 -2.0479 0
M  V30 13 N -2.7966 -2.0158 0.4242 0
M  V30 14 C -3.8213 -0.3863 1.9184 0
M  V30 15 C 2.2439 2.3921 -0.8361 0
M  V30 16 O 0.6245 -1.0689 -2.9464 0
M  V30 17 N 1.4474 -0.6398 -0.8727 0
M  V30 18 C -2.3208 -3.0248 1.2428 0
M  V30 19 O -2.7778 0.1862 2.1956 0
M  V30 20 O -4.9091 -0.2077 2.697 0
M  V30 21 O 2.1849 1.6806 0.1618 0
M  V30 22 C 3.2422 3.5616 -0.9992 0 CFG=1
M  V30 23 C 2.0376 -1.9585 -0.7462 0
M  V30 24 O -2.9657 -3.3978 2.221 0
M  V30 25 C -1.0279 -3.7128 0.7546 0 CFG=1
M  V30 26 N 2.6474 4.5814 -1.909 0
M  V30 27 C 3.6317 4.127 0.3783 0
M  V30 28 C 1.0269 -3.0754 -0.4747 0
M  V30 29 N -0.0629 -2.7092 0.2905 0
M  V30 30 C -0.4293 -4.6083 1.8608 0
M  V30 31 C 4.6583 5.2341 0.3039 0
M  V30 32 O 1.2617 -4.2466 -0.7663 0
M  V30 33 C -0.9702 -6.0209 1.8297 0
M  V30 34 C 5.9953 4.9442 -0.0072 0
M  V30 35 C 4.2853 6.5664 0.5316 0
M  V30 36 C -1.9804 -6.4253 2.7111 0
M  V30 37 C -0.4714 -6.9432 0.8986 0
M  V30 38 C 6.9417 5.9678 -0.0949 0
M  V30 39 C 5.2311 7.5885 0.4425 0
M  V30 40 C -2.4795 -7.7281 2.665 0
M  V30 41 C -0.9711 -8.2454 0.8543 0
M  V30 42 C 6.5496 7.2828 0.1299 0
M  V30 43 C -1.9746 -8.6378 1.7378 0
M  V30 44 O 7.4387 8.3132 0.0536 0
M  V30 45 H 0.1897 1.3327 -3.2381 0
M  V30 46 H -1.5459 3.0216 -2.9711 0
M  V30 47 H -2.3612 3.2692 -1.4164 0
M  V30 48 H -0.6811 3.7273 -1.6032 0
M  V30 49 H -0.5922 0.5611 0.4844 0
M  V30 50 H -0.1595 2.2787 0.4647 0
M  V30 51 H -1.8284 1.8268 0.5512 0
M  V30 52 H -4.7172 -2.1386 1.1428 0
M  V30 53 H -6.7692 -1.1277 0.3868 0
M  V30 54 H -6.2388 0.5348 0.6647 0
M  V30 55 H -6.8166 0.042 -0.9285 0
M  V30 56 H -5.4973 -1.3222 -2.4585 0
M  V30 57 H -3.9791 -2.0941 -1.9822 0
M  V30 58 H -5.4956 -2.6151 -1.2594 0
M  V30 59 H 1.6323 2.8847 -2.684 0
M  V30 60 H -2.2487 -1.7107 -0.3743 0
M  V30 61 H 1.7096 0.0854 -0.2027 0
M  V30 62 H -4.586 0.3592 3.4288 0
M  V30 63 H 4.1239 3.145 -1.5015 0
M  V30 64 H 2.7392 -1.9245 0.093 0
M  V30 65 H 2.5853 -2.1952 -1.6643 0
M  V30 66 H -1.3009 -4.3107 -0.1246 0
M  V30 67 H 1.9227 5.0867 -1.3943 0
M  V30 68 H 3.3666 5.2892 -2.0882 0
M  V30 69 H 2.7349 4.4839 0.903 0
M  V30 70 H 4.0378 3.3279 1.0128 0
M  V30 71 H -0.1549 -1.7404 0.5741 0
M  V30 72 H -0.5925 -4.1678 2.8532 0
M  V30 73 H 0.6622 -4.6767 1.7668 0
M  V30 74 H 6.3102 3.9171 -0.1796 0
M  V30 75 H 3.2582 6.821 0.783 0
M  V30 76 H -2.3919 -5.7244 3.435 0
M  V30 77 H 0.3107 -6.6481 0.2002 0
M  V30 78 H 7.9708 5.7207 -0.336 0
M  V30 79 H 4.9416 8.6206 0.6205 0
M  V30 80 H -3.2654 -8.0304 3.3519 0
M  V30 81 H -0.5766 -8.9513 0.1285 0
M  V30 82 H -2.3644 -9.6513 1.7025 0
M  V30 83 H 8.3181 7.9513 -0.1438 0
M  V30 END ATOM
M  V30 BEGIN BOND
M  V30 1 1 1 2
M  V30 2 1 1 3
M  V30 3 1 2 4
M  V30 4 1 3 5
M  V30 5 1 3 6
M  V30 6 1 3 7
M  V30 7 1 4 8
M  V30 8 1 4 9
M  V30 9 1 4 10
M  V30 10 1 5 11
M  V30 11 1 5 12
M  V30 12 1 8 13
M  V30 13 1 8 14
M  V30 14 1 11 15
M  V30 15 2 12 16
M  V30 16 1 12 17
M  V30 17 1 13 18
M  V30 18 2 14 19
M  V30 19 1 14 20
M  V30 20 2 15 21
M  V30 21 1 15 22
M  V30 22 1 17 23
M  V30 23 2 18 24
M  V30 24 1 18 25
M  V30 25 1 22 26
M  V30 26 1 22 27
M  V30 27 1 23 28
M  V30 28 1 25 29
M  V30 29 1 25 30
M  V30 30 1 27 31
M  V30 31 2 28 32
M  V30 32 1 30 33
M  V30 33 2 31 34
M  V30 34 1 31 35
M  V30 35 2 33 36
M  V30 36 1 33 37
M  V30 37 1 34 38
M  V30 38 2 35 39
M  V30 39 1 36 40
M  V30 40 2 37 41
M  V30 41 2 38 42
M  V30 42 2 40 43
M  V30 43 1 42 44
M  V30 44 1 28 29
M  V30 45 1 39 42
M  V30 46 1 41 43
M  V30 47 1 5 45
M  V30 48 1 6 46
M  V30 49 1 6 47
M  V30 50 1 6 48
M  V30 51 1 7 49
M  V30 52 1 7 50
M  V30 53 1 7 51
M  V30 54 1 8 52
M  V30 55 1 9 53
M  V30 56 1 9 54
M  V30 57 1 9 55
M  V30 58 1 10 56
M  V30 59 1 10 57
M  V30 60 1 10 58
M  V30 61 1 11 59
M  V30 62 1 13 60
M  V30 63 1 17 61
M  V30 64 1 20 62
M  V30 65 1 22 63
M  V30 66 1 23 64
M  V30 67 1 23 65
M  V30 68 1 25 66
M  V30 69 1 26 67
M  V30 70 1 26 68
M  V30 71 1 27 69
M  V30 72 1 27 70
M  V30 73 1 29 71
M  V30 74 1 30 72
M  V30 75 1 30 73
M  V30 76 1 34 74
M  V30 77 1 35 75
M  V30 78 1 36 76
M  V30 79 1 37 77
M  V30 80 1 38 78
M  V30 81 1 39 79
M  V30 82 1 40 80
M  V30 83 1 41 81
M  V30 84 1 43 82
M  V30 85 1 44 83
M  V30 END BOND
M  V30 BEGIN COLLECTION
M  V30 MDLV30/STEABS ATOMS=(4 5 8 22 25)
M  V30 END COLLECTION
M  V30 END CTAB
M  END
>  <level_0>
349

>  <index>
349

>  <NO.>
350

>  <Name>
dpdpe

>  <SMILES>
CC1(C)SSC(C)(C)[C@@H](NC(=O)[C@@H](N)Cc2ccc(O)cc2)C(=O)NCC(=O)N[C@@H](Cc2ccccc2)C(=O)N[C@H]1C(=O)O

>  <logBB>
-0.3

>  <Class>
1

>  <MW>
645.23

>  <nHBAcc>
9

>  <nHBDon>
7

>  <SLogP>
1.11

>  <TopoPSA>
199.95

>  <MMFF94 Energy>
144.86

$$$$
CC1C=Nc2c1c(=O)[nH]c(=O)n2C
Actelion Java MolfileCreator 2.0

  0  0  0  0  0  0              0 V3000
M  V30 BEGIN CTAB
M  V30 COUNTS 22 23 0 0 0
M  V30 BEGIN ATOM
M  V30 1 O -1.109 -2.9331 1.9018 0
M  V30 2 C -0.6556 -1.9039 1.4058 0
M  V30 3 N -1.2585 -1.1883 0.3793 0
M  V30 4 N 0.5325 -1.3882 1.8749 0
M  V30 5 C -0.6797 -0.0519 -0.1137 0
M  V30 6 C -2.5185 -1.6459 -0.1813 0
M  V30 7 C 1.1582 -0.2552 1.4313 0
M  V30 8 N -1.2135 0.7119 -1.1131 0
M  V30 9 C 0.4712 0.4256 0.349 0
M  V30 10 O 2.2082 0.165 1.8989 0
M  V30 11 C -0.3599 1.6824 -1.2542 0
M  V30 12 C 0.8625 1.6651 -0.3578 0 CFG=2
M  V30 13 C 2.1332 1.56 -1.1786 0
M  V30 14 H 0.9742 -1.8983 2.6241 0
M  V30 15 H -2.8653 -2.5635 0.302 0
M  V30 16 H -2.3873 -1.8458 -1.2496 0
M  V30 17 H -3.2794 -0.8715 -0.0397 0
M  V30 18 H -0.4996 2.4974 -1.9809 0
M  V30 19 H 0.859 2.5466 0.289 0
M  V30 20 H 2.1116 0.7002 -1.8584 0
M  V30 21 H 2.2662 2.456 -1.7948 0
M  V30 22 H 3.0113 1.4586 -0.5326 0
M  V30 END ATOM
M  V30 BEGIN BOND
M  V30 1 2 1 2
M  V30 2 1 2 3
M  V30 3 1 2 4
M  V30 4 1 3 5
M  V30 5 1 3 6
M  V30 6 1 4 7
M  V30 7 1 5 8
M  V30 8 2 5 9
M  V30 9 2 7 10
M  V30 10 2 8 11
M  V30 11 1 9 12
M  V30 12 1 12 13
M  V30 13 1 7 9
M  V30 14 1 11 12
M  V30 15 1 4 14
M  V30 16 1 6 15
M  V30 17 1 6 16
M  V30 18 1 6 17
M  V30 19 1 11 18
M  V30 20 1 12 19
M  V30 21 1 13 20
M  V30 22 1 13 21
M  V30 23 1 13 22
M  V30 END BOND
M  V30 BEGIN COLLECTION
M  V30 MDLV30/STERAC1 ATOMS=(1 12)
M  V30 END COLLECTION
M  V30 END CTAB
M  END
>  <level_0>
350

>  <index>
350

>  <NO.>
351

>  <Name>
theobromine

>  <SMILES>
CC1C=Nc2c1c(=O)[nH]c(=O)n2C

>  <logBB>
-0.3

>  <Class>
1

>  <MW>
179.07

>  <nHBAcc>
3

>  <nHBDon>
1

>  <SLogP>
-0.11

>  <TopoPSA>
67.22

>  <MMFF94 Energy>
-125.71

$$$$
Cn1cnc2c1c(=O)[nH]c(=O)n2C
Actelion Java MolfileCreator 2.0

  0  0  0  0  0  0              0 V3000
M  V30 BEGIN CTAB
M  V30 COUNTS 21 22 0 0 0
M  V30 BEGIN ATOM
M  V30 1 O 1.0244 -3.3126 0.6303 0
M  V30 2 C 0.569 -2.1952 0.3861 0
M  V30 3 N 1.3211 -1.025 0.4082 0
M  V30 4 N -0.7727 -2.0775 0.068 0
M  V30 5 C 0.6962 0.1683 0.116 0
M  V30 6 C 2.7337 -1.0567 0.7315 0
M  V30 7 C -1.4624 -0.9244 -0.2336 0
M  V30 8 N 1.2763 1.3998 0.0915 0
M  V30 9 C -0.6328 0.2265 -0.1915 0
M  V30 10 O -2.6576 -0.9217 -0.504 0
M  V30 11 C 0.2946 2.2185 -0.2338 0
M  V30 12 N -0.8862 1.5477 -0.4158 0
M  V30 13 C -2.153 2.1315 -0.776 0
M  V30 14 H -1.2992 -2.9364 0.0577 0
M  V30 15 H 2.9117 -0.4392 1.6175 0
M  V30 16 H 3.0776 -2.0736 0.9379 0
M  V30 17 H 3.3031 -0.6582 -0.1138 0
M  V30 18 H 0.3848 3.2915 -0.3491 0
M  V30 19 H -2.8732 1.9164 0.0173 0
M  V30 20 H -2.0381 3.2127 -0.8867 0
M  V30 21 H -2.4797 1.6963 -1.7235 0
M  V30 END ATOM
M  V30 BEGIN BOND
M  V30 1 2 1 2
M  V30 2 1 2 3
M  V30 3 1 2 4
M  V30 4 1 3 5
M  V30 5 1 3 6
M  V30 6 1 4 7
M  V30 7 1 5 8
M  V30 8 2 5 9
M  V30 9 2 7 10
M  V30 10 2 8 11
M  V30 11 1 9 12
M  V30 12 1 12 13
M  V30 13 1 7 9
M  V30 14 1 11 12
M  V30 15 1 4 14
M  V30 16 1 6 15
M  V30 17 1 6 16
M  V30 18 1 6 17
M  V30 19 1 11 18
M  V30 20 1 13 19
M  V30 21 1 13 20
M  V30 22 1 13 21
M  V30 END BOND
M  V30 END CTAB
M  END
>  <level_0>
354

>  <index>
354

>  <NO.>
355

>  <Name>
theobromine (3,7-dimethylxanthine)

>  <SMILES>
Cn1cnc2c1c(=O)[nH]c(=O)n2C

>  <logBB>
-0.3

>  <Class>
1

>  <MW>
180.06

>  <nHBAcc>
3

>  <nHBDon>
1

>  <SLogP>
-1.04

>  <TopoPSA>
72.68

>  <MMFF94 Energy>
-139.31

$$$$
O=C(Nc1cc(Cl)ccc1O)Nc1cc(C(F)(F)F)ccc1Cl
Actelion Java MolfileCreator 2.0

  0  0  0  0  0  0              0 V3000
M  V30 BEGIN CTAB
M  V30 COUNTS 32 33 0 0 0
M  V30 BEGIN ATOM
M  V30 1 Cl 2.8067 -3.0546 -0.4948 0
M  V30 2 C 1.5159 -3.0795 0.659 0
M  V30 3 C 0.567 -2.0431 0.7075 0
M  V30 4 C 1.4443 -4.158 1.5429 0
M  V30 5 N 0.6777 -0.9775 -0.2152 0
M  V30 6 C -0.4705 -2.127 1.6429 0
M  V30 7 C 0.4143 -4.2207 2.4816 0
M  V30 8 C 0.0992 0.2763 -0.1231 0
M  V30 9 C -0.559 -3.2124 2.5346 0
M  V30 10 O -0.5628 0.666 0.83 0
M  V30 11 N 0.3774 1.0218 -1.2513 0
M  V30 12 C -1.6739 -3.2657 3.553 0
M  V30 13 C 0.0215 2.3595 -1.5204 0
M  V30 14 F -1.4131 -2.5039 4.6495 0
M  V30 15 F -2.8667 -2.8312 3.0618 0
M  V30 16 F -1.9054 -4.525 4.0211 0
M  V30 17 C 0.2505 2.8187 -2.8285 0
M  V30 18 C -0.5118 3.238 -0.5779 0
M  V30 19 O 0.7906 1.9425 -3.7369 0
M  V30 20 C -0.0567 4.1246 -3.2038 0
M  V30 21 C -0.8203 4.5478 -0.9519 0
M  V30 22 C -0.5977 4.9929 -2.2563 0
M  V30 23 Cl -1.4795 5.6359 0.2088 0
M  V30 24 H 2.1871 -4.9511 1.5063 0
M  V30 25 H 1.3715 -1.1046 -0.94 0
M  V30 26 H -1.2385 -1.3566 1.6925 0
M  V30 27 H 0.3695 -5.0641 3.1701 0
M  V30 28 H 0.7994 0.5518 -2.0425 0
M  V30 29 H -0.6895 2.9297 0.447 0
M  V30 30 H 0.8679 2.3976 -4.5931 0
M  V30 31 H 0.1165 4.4814 -4.214 0
M  V30 32 H -0.8417 6.0149 -2.5352 0
M  V30 END ATOM
M  V30 BEGIN BOND
M  V30 1 1 1 2
M  V30 2 2 2 3
M  V30 3 1 2 4
M  V30 4 1 3 5
M  V30 5 1 3 6
M  V30 6 2 4 7
M  V30 7 1 5 8
M  V30 8 2 6 9
M  V30 9 2 8 10
M  V30 10 1 8 11
M  V30 11 1 9 12
M  V30 12 1 11 13
M  V30 13 1 12 14
M  V30 14 1 12 15
M  V30 15 1 12 16
M  V30 16 2 13 17
M  V30 17 1 13 18
M  V30 18 1 17 19
M  V30 19 1 17 20
M  V30 20 2 18 21
M  V30 21 2 20 22
M  V30 22 1 21 23
M  V30 23 1 7 9
M  V30 24 1 21 22
M  V30 25 1 4 24
M  V30 26 1 5 25
M  V30 27 1 6 26
M  V30 28 1 7 27
M  V30 29 1 11 28
M  V30 30 1 18 29
M  V30 31 1 19 30
M  V30 32 1 20 31
M  V30 33 1 22 32
M  V30 END BOND
M  V30 END CTAB
M  END
>  <level_0>
356

>  <index>
356

>  <NO.>
357

>  <Name>
ns 1738

>  <SMILES>
O=C(Nc1cc(Cl)ccc1O)Nc1cc(C(F)(F)F)ccc1Cl

>  <logBB>
-0.3

>  <Class>
1

>  <MW>
364.0

>  <nHBAcc>
2

>  <nHBDon>
3

>  <SLogP>
5.36

>  <TopoPSA>
61.36

>  <MMFF94 Energy>
-1.9085

$$$$
[Li]
Actelion Java MolfileCreator 2.0

  0  0  0  0  0  0              0 V3000
M  V30 BEGIN CTAB
M  V30 COUNTS 1 0 0 0 0
M  V30 BEGIN ATOM
M  V30 1 Li 0.0 0.0 0.0 0
M  V30 END ATOM
M  V30 BEGIN BOND
M  V30 END BOND
M  V30 END CTAB
M  END
>  <level_0>
357

>  <index>
357

>  <NO.>
358

>  <Name>
7439-93-2

>  <SMILES>
[Li]

>  <logBB>
-0.3

>  <Class>
1

>  <MW>
7.02

>  <nHBAcc>
0

>  <nHBDon>
0

>  <SLogP>
-0.38

>  <TopoPSA>
0.0

>  <MMFF94 Energy>
MMFF94 error code 2

$$$$
CN1C(=O)C2N=CN=C2N(C)C1=O
Actelion Java MolfileCreator 2.0

  0  0  0  0  0  0              0 V3000
M  V30 BEGIN CTAB
M  V30 COUNTS 21 22 0 0 0
M  V30 BEGIN ATOM
M  V30 1 O -2.3168 -0.7984 0.7984 0
M  V30 2 C -1.1748 -0.5057 0.4415 0
M  V30 3 N -0.2522 -1.4806 0.0273 0
M  V30 4 N -0.7495 0.8177 0.3555 0
M  V30 5 C 1.088 -1.2411 -0.3146 0
M  V30 6 C -0.7651 -2.8274 -0.1444 0
M  V30 7 C 0.5316 1.1132 0.0311 0
M  V30 8 C -1.7432 1.8671 0.4814 0
M  V30 9 O 1.802 -2.052 -0.8985 0
M  V30 10 C 1.5715 0.0804 0.2017 0 CFG=2
M  V30 11 N 0.9916 2.2186 -0.4409 0
M  V30 12 N 2.7028 0.6965 -0.5242 0
M  V30 13 C 2.2884 1.9026 -0.7759 0
M  V30 14 H 0.029 -3.5521 -0.3403 0
M  V30 15 H -1.3063 -3.1307 0.7576 0
M  V30 16 H -1.4685 -2.8269 -0.9834 0
M  V30 17 H -2.3443 1.6972 1.3802 0
M  V30 18 H -2.405 1.8254 -0.3894 0
M  V30 19 H -1.2809 2.8561 0.5389 0
M  V30 20 H 1.8216 -0.0263 1.2637 0
M  V30 21 H 2.9268 2.6482 -1.2764 0
M  V30 END ATOM
M  V30 BEGIN BOND
M  V30 1 2 1 2
M  V30 2 1 2 3
M  V30 3 1 2 4
M  V30 4 1 3 5
M  V30 5 1 3 6
M  V30 6 1 4 7
M  V30 7 1 4 8
M  V30 8 2 5 9
M  V30 9 1 5 10
M  V30 10 2 7 11
M  V30 11 1 10 12
M  V30 12 1 11 13
M  V30 13 1 7 10
M  V30 14 2 12 13
M  V30 15 1 6 14
M  V30 16 1 6 15
M  V30 17 1 6 16
M  V30 18 1 8 17
M  V30 19 1 8 18
M  V30 20 1 8 19
M  V30 21 1 10 20
M  V30 22 1 13 21
M  V30 END BOND
M  V30 BEGIN COLLECTION
M  V30 MDLV30/STERAC1 ATOMS=(1 10)
M  V30 END COLLECTION
M  V30 END CTAB
M  END
>  <level_0>
361

>  <index>
361

>  <NO.>
362

>  <Name>
theophylline

>  <SMILES>
CN1C(=O)C2N=CN=C2N(C)C1=O

>  <logBB>
-0.29

>  <Class>
1

>  <MW>
180.06

>  <nHBAcc>
4

>  <nHBDon>
0

>  <SLogP>
-0.68

>  <TopoPSA>
65.34

>  <MMFF94 Energy>
-51.874

$$$$
CN1C(=O)C2NC=NC2N(C)C1=O
Actelion Java MolfileCreator 2.0

  0  0  0  0  0  0              0 V3000
M  V30 BEGIN CTAB
M  V30 COUNTS 23 24 0 0 0
M  V30 BEGIN ATOM
M  V30 1 O -1.7474 1.8269 -1.0323 0
M  V30 2 C -0.896 1.0298 -0.6347 0
M  V30 3 N 0.3158 1.4666 -0.1155 0
M  V30 4 N -1.0806 -0.3281 -0.7236 0
M  V30 5 C 1.4237 0.6772 0.1385 0
M  V30 6 C 0.4587 2.9006 0.071 0
M  V30 7 C -0.1584 -1.283 -0.1768 0
M  V30 8 C -2.3487 -0.8526 -1.2048 0
M  V30 9 O 2.5133 1.1456 0.4943 0
M  V30 10 C 1.2919 -0.8209 -0.0368 0
M  V30 11 N -0.5981 -1.74 1.1807 0
M  V30 12 N 1.6581 -1.4828 1.2059 0
M  V30 13 C 0.5192 -1.8543 1.8333 0
M  V30 14 H 1.2452 3.1397 0.7924 0
M  V30 15 H -0.4807 3.3397 0.4219 0
M  V30 16 H 0.7155 3.3479 -0.8948 0
M  V30 17 H -0.1742 -2.167 -0.8299 0
M  V30 18 H -2.9017 -1.275 -0.3604 0
M  V30 19 H -2.9637 -0.0789 -1.6719 0
M  V30 20 H -2.155 -1.6357 -1.9439 0
M  V30 21 H 1.9125 -1.1414 -0.8793 0
M  V30 22 H 2.5174 -1.2413 1.687 0
M  V30 23 H 0.6108 -2.19 2.8783 0
M  V30 END ATOM
M  V30 BEGIN BOND
M  V30 1 2 1 2
M  V30 2 1 2 3
M  V30 3 1 2 4
M  V30 4 1 3 5
M  V30 5 1 3 6
M  V30 6 1 4 7
M  V30 7 1 4 8
M  V30 8 2 5 9
M  V30 9 1 5 10
M  V30 10 1 7 11
M  V30 11 1 10 12
M  V30 12 2 11 13
M  V30 13 1 7 10
M  V30 14 1 12 13
M  V30 15 1 6 14
M  V30 16 1 6 15
M  V30 17 1 6 16
M  V30 18 1 7 17
M  V30 19 1 8 18
M  V30 20 1 8 19
M  V30 21 1 8 20
M  V30 22 1 10 21
M  V30 23 1 12 22
M  V30 24 1 13 23
M  V30 END BOND
M  V30 END CTAB
M  END
>  <level_0>
362

>  <index>
362

>  <NO.>
363

>  <Name>
1,3-dimethyl-5,7-dihydro-4h-purine-2,6-dione

>  <SMILES>
CN1C(=O)C2NC=NC2N(C)C1=O

>  <logBB>
-0.29

>  <Class>
1

>  <MW>
182.08

>  <nHBAcc>
4

>  <nHBDon>
1

>  <SLogP>
-1.16

>  <TopoPSA>
65.01

>  <MMFF94 Energy>
-65.007

$$$$
CC1NC(=O)C2(CCCC2)NC1=O
Actelion Java MolfileCreator 2.0

  0  0  0  0  0  0              0 V3000
M  V30 BEGIN CTAB
M  V30 COUNTS 27 28 0 0 0
M  V30 BEGIN ATOM
M  V30 1 O 2.5422 -0.7939 0.3175 0
M  V30 2 C 1.3269 -0.9498 0.2308 0
M  V30 3 N 0.7132 -1.9146 0.9896 0
M  V30 4 C 0.3883 -0.0293 -0.5914 0
M  V30 5 C -0.7266 -1.9881 1.2025 0 CFG=2
M  V30 6 N -0.8628 -0.7252 -0.9171 0
M  V30 7 C 1.0744 0.4268 -1.896 0
M  V30 8 C 0.1026 1.2758 0.1871 0
M  V30 9 C -1.5183 -1.5503 -0.0399 0
M  V30 10 C -1.1616 -1.2045 2.4316 0
M  V30 11 C 0.6313 1.8708 -2.0785 0
M  V30 12 C 0.6668 2.4115 -0.6627 0
M  V30 13 O -2.6984 -1.8373 -0.2205 0
M  V30 14 H 1.3341 -2.4926 1.5419 0
M  V30 15 H -0.9459 -3.0508 1.3585 0
M  V30 16 H -1.4181 -0.4194 -1.7069 0
M  V30 17 H 0.7997 -0.1861 -2.7614 0
M  V30 18 H 2.1674 0.3987 -1.8146 0
M  V30 19 H 0.5616 1.2928 1.1816 0
M  V30 20 H -0.9752 1.4293 0.3219 0
M  V30 21 H -2.2369 -1.3186 2.6053 0
M  V30 22 H -0.9593 -0.1351 2.3321 0
M  V30 23 H -0.6329 -1.5581 3.3233 0
M  V30 24 H -0.3877 1.912 -2.4802 0
M  V30 25 H 1.2901 2.4252 -2.7528 0
M  V30 26 H 1.7015 2.6205 -0.3653 0
M  V30 27 H 0.0912 3.3354 -0.5537 0
M  V30 END ATOM
M  V30 BEGIN BOND
M  V30 1 2 1 2
M  V30 2 1 2 3
M  V30 3 1 2 4
M  V30 4 1 3 5
M  V30 5 1 4 6
M  V30 6 1 4 7
M  V30 7 1 4 8
M  V30 8 1 5 9
M  V30 9 1 5 10
M  V30 10 1 7 11
M  V30 11 1 8 12
M  V30 12 2 9 13
M  V30 13 1 6 9
M  V30 14 1 11 12
M  V30 15 1 3 14
M  V30 16 1 5 15
M  V30 17 1 6 16
M  V30 18 1 7 17
M  V30 19 1 7 18
M  V30 20 1 8 19
M  V30 21 1 8 20
M  V30 22 1 10 21
M  V30 23 1 10 22
M  V30 24 1 10 23
M  V30 25 1 11 24
M  V30 26 1 11 25
M  V30 27 1 12 26
M  V30 28 1 12 27
M  V30 END BOND
M  V30 BEGIN COLLECTION
M  V30 MDLV30/STERAC1 ATOMS=(1 5)
M  V30 END COLLECTION
M  V30 END CTAB
M  END
>  <level_0>
374

>  <index>
374

>  <NO.>
375

>  <Name>
107447-22-3

>  <SMILES>
CC1NC(=O)C2(CCCC2)NC1=O

>  <logBB>
-0.26

>  <Class>
1

>  <MW>
182.11

>  <nHBAcc>
2

>  <nHBDon>
2

>  <SLogP>
-0.07

>  <TopoPSA>
58.2

>  <MMFF94 Energy>
68.244

$$$$
CN(C)C(=O)C(CCCN1CCC(O)(c2ccc(Cl)cc2)CC1)(c1ccccc1)c1ccccc1
Actelion Java MolfileCreator 2.0

  0  0  0  0  0  0              0 V3000
M  V30 BEGIN CTAB
M  V30 COUNTS 70 73 0 0 0
M  V30 BEGIN ATOM
M  V30 1 Cl -8.35 2.4032 3.125 0
M  V30 2 C -6.9627 2.4597 2.1101 0
M  V30 3 C -6.0201 3.4668 2.2801 0
M  V30 4 C -6.7874 1.4976 1.1206 0
M  V30 5 C -4.895 3.5076 1.4525 0
M  V30 6 C -5.6597 1.5405 0.2921 0
M  V30 7 C -4.6904 2.546 0.4405 0
M  V30 8 C -3.4354 2.6399 -0.4365 0
M  V30 9 O -3.3698 3.9932 -0.9243 0
M  V30 10 C -3.432 1.7199 -1.6698 0
M  V30 11 C -2.1753 2.3666 0.4006 0
M  V30 12 C -2.1123 1.8022 -2.4389 0
M  V30 13 C -0.9023 2.3973 -0.4474 0
M  V30 14 N -0.985 1.4439 -1.5653 0
M  V30 15 C 0.2669 1.4048 -2.3419 0
M  V30 16 C 1.4176 0.6864 -1.6163 0
M  V30 17 C 1.1204 -0.8055 -1.3695 0
M  V30 18 C 2.0377 -1.5608 -0.3161 0
M  V30 19 C 1.9144 -0.8553 1.0735 0
M  V30 20 C 3.4467 -1.6324 -0.984 0
M  V30 21 C 1.3996 -3.0185 -0.1561 0
M  V30 22 C 3.0119 -0.5166 1.8857 0
M  V30 23 C 0.6314 -0.5814 1.598 0
M  V30 24 C 4.3319 -0.5358 -0.9802 0
M  V30 25 C 3.8492 -2.7703 -1.7131 0
M  V30 26 O 0.441 -3.3525 -0.8684 0
M  V30 27 N 1.9041 -3.9348 0.7691 0
M  V30 28 C 2.8408 0.1009 3.1301 0
M  V30 29 C 0.4586 0.0351 2.8405 0
M  V30 30 C 5.5774 -0.5947 -1.6126 0
M  V30 31 C 5.0949 -2.8309 -2.3459 0
M  V30 32 C 3.1027 -3.778 1.5757 0
M  V30 33 C 1.1744 -5.1747 0.9915 0
M  V30 34 C 1.5651 0.3824 3.6047 0
M  V30 35 C 5.9622 -1.7461 -2.2887 0
M  V30 36 H -6.1504 4.2215 3.0509 0
M  V30 37 H -7.5221 0.7076 0.9869 0
M  V30 38 H -4.1675 4.3057 1.5989 0
M  V30 39 H -5.5639 0.7654 -0.4635 0
M  V30 40 H -4.2783 4.2583 -1.1522 0
M  V30 41 H -3.585 0.674 -1.3746 0
M  V30 42 H -4.2476 1.993 -2.3515 0
M  V30 43 H -2.0638 3.1172 1.1932 0
M  V30 44 H -2.2577 1.3893 0.8954 0
M  V30 45 H -1.9788 2.8018 -2.8723 0
M  V30 46 H -2.1727 1.0947 -3.2752 0
M  V30 47 H -0.0689 2.1442 0.2152 0
M  V30 48 H -0.7184 3.416 -0.8132 0
M  V30 49 H 0.5834 2.4197 -2.6155 0
M  V30 50 H 0.0984 0.8668 -3.2842 0
M  V30 51 H 1.6567 1.2064 -0.6848 0
M  V30 52 H 2.3034 0.7736 -2.2557 0
M  V30 53 H 1.1857 -1.3196 -2.3402 0
M  V30 54 H 0.069 -0.9094 -1.0764 0
M  V30 55 H 4.0311 -0.741 1.5844 0
M  V30 56 H -0.2662 -0.851 1.0429 0
M  V30 57 H 4.0569 0.3975 -0.4925 0
M  V30 58 H 3.1954 -3.6347 -1.8161 0
M  V30 59 H 3.7104 0.3549 3.7313 0
M  V30 60 H -0.5442 0.2377 3.2079 0
M  V30 61 H 6.2399 0.2666 -1.5852 0
M  V30 62 H 5.3789 -3.7255 -2.8943 0
M  V30 63 H 3.7866 -3.0358 1.176 0
M  V30 64 H 2.8052 -3.5016 2.5912 0
M  V30 65 H 3.6374 -4.7327 1.6094 0
M  V30 66 H 0.2208 -5.2088 0.4595 0
M  V30 67 H 0.9756 -5.2785 2.0628 0
M  V30 68 H 1.7955 -6.0102 0.655 0
M  V30 69 H 1.4334 0.8604 4.5713 0
M  V30 70 H 6.9273 -1.7917 -2.7856 0
M  V30 END ATOM
M  V30 BEGIN BOND
M  V30 1 1 1 2
M  V30 2 2 2 3
M  V30 3 1 2 4
M  V30 4 1 3 5
M  V30 5 2 4 6
M  V30 6 2 5 7
M  V30 7 1 7 8
M  V30 8 1 8 9
M  V30 9 1 8 10
M  V30 10 1 8 11
M  V30 11 1 10 12
M  V30 12 1 11 13
M  V30 13 1 12 14
M  V30 14 1 14 15
M  V30 15 1 15 16
M  V30 16 1 16 17
M  V30 17 1 17 18
M  V30 18 1 18 19
M  V30 19 1 18 20
M  V30 20 1 18 21
M  V30 21 2 19 22
M  V30 22 1 19 23
M  V30 23 2 20 24
M  V30 24 1 20 25
M  V30 25 2 21 26
M  V30 26 1 21 27
M  V30 27 1 22 28
M  V30 28 2 23 29
M  V30 29 1 24 30
M  V30 30 2 25 31
M  V30 31 1 27 32
M  V30 32 1 27 33
M  V30 33 2 28 34
M  V30 34 2 30 35
M  V30 35 1 6 7
M  V30 36 1 13 14
M  V30 37 1 29 34
M  V30 38 1 31 35
M  V30 39 1 3 36
M  V30 40 1 4 37
M  V30 41 1 5 38
M  V30 42 1 6 39
M  V30 43 1 9 40
M  V30 44 1 10 41
M  V30 45 1 10 42
M  V30 46 1 11 43
M  V30 47 1 11 44
M  V30 48 1 12 45
M  V30 49 1 12 46
M  V30 50 1 13 47
M  V30 51 1 13 48
M  V30 52 1 15 49
M  V30 53 1 15 50
M  V30 54 1 16 51
M  V30 55 1 16 52
M  V30 56 1 17 53
M  V30 57 1 17 54
M  V30 58 1 22 55
M  V30 59 1 23 56
M  V30 60 1 24 57
M  V30 61 1 25 58
M  V30 62 1 28 59
M  V30 63 1 29 60
M  V30 64 1 30 61
M  V30 65 1 31 62
M  V30 66 1 32 63
M  V30 67 1 32 64
M  V30 68 1 32 65
M  V30 69 1 33 66
M  V30 70 1 33 67
M  V30 71 1 33 68
M  V30 72 1 34 69
M  V30 73 1 35 70
M  V30 END BOND
M  V30 END CTAB
M  END
>  <level_0>
377

>  <index>
377

>  <NO.>
378

>  <Name>
loperamide

>  <SMILES>
CN(C)C(=O)C(CCCN1CCC(O)(c2ccc(Cl)cc2)CC1)(c1ccccc1)c1ccccc1

>  <logBB>
-0.25

>  <Class>
1

>  <MW>
490.24

>  <nHBAcc>
3

>  <nHBDon>
1

>  <SLogP>
5.48

>  <TopoPSA>
43.78

>  <MMFF94 Energy>
122.47

$$$$
C#CCO
Actelion Java MolfileCreator 2.0

  0  0  0  0  0  0              0 V3000
M  V30 BEGIN CTAB
M  V30 COUNTS 8 7 0 0 0
M  V30 BEGIN ATOM
M  V30 1 O -1.2249 -0.6531 1.2249 0
M  V30 2 C 0.2202 0.0341 0.7339 0
M  V30 3 C 0.2019 0.2304 -0.952 0
M  V30 4 C 0.187 0.3898 -2.3196 0
M  V30 5 H -1.2175 -0.7716 2.2179 0
M  V30 6 H 0.3504 1.0645 1.2416 0
M  V30 7 H 1.0958 -0.6588 1.0323 0
M  V30 8 H 0.1753 0.5149 -3.3942 0
M  V30 END ATOM
M  V30 BEGIN BOND
M  V30 1 1 1 2
M  V30 2 1 2 3
M  V30 3 3 3 4
M  V30 4 1 1 5
M  V30 5 1 2 6
M  V30 6 1 2 7
M  V30 7 1 4 8
M  V30 END BOND
M  V30 END CTAB
M  END
>  <level_0>
384

>  <index>
384

>  <NO.>
385

>  <Name>
propargyl alcohol

>  <SMILES>
C#CCO

>  <logBB>
-0.23

>  <Class>
1

>  <MW>
56.03

>  <nHBAcc>
1

>  <nHBDon>
1

>  <SLogP>
-0.39

>  <TopoPSA>
20.23

>  <MMFF94 Energy>
MMFF94 error code 2

$$$$
CCCN(CC1CC1)c1nc(C)nc2c1CCN2c1ccc(Cl)cc1Cl
Actelion Java MolfileCreator 2.0

  0  0  0  0  0  0              0 V3000
M  V30 BEGIN CTAB
M  V30 COUNTS 50 53 0 0 0
M  V30 BEGIN ATOM
M  V30 1 Cl -1.3717 0.726 3.8768 0
M  V30 2 C 0.2656 0.4711 4.3827 0
M  V30 3 C 1.3415 0.4742 3.4714 0
M  V30 4 C 0.4874 0.3196 5.7563 0
M  V30 5 N 1.202 0.6091 2.0899 0
M  V30 6 C 2.6421 0.3439 3.9881 0
M  V30 7 C 1.7859 0.1774 6.235 0
M  V30 8 C 0.4194 -0.1833 1.1992 0
M  V30 9 C 1.1972 1.9512 1.5016 0
M  V30 10 C 2.8662 0.1928 5.3587 0
M  V30 11 Cl 2.0599 -0.0053 7.9238 0
M  V30 12 N -0.0778 -1.3837 1.4918 0
M  V30 13 C 0.2291 0.4558 -0.0146 0
M  V30 14 C 0.9245 1.7698 -2.0E-4 0
M  V30 15 C -0.829 -1.9277 0.5254 0
M  V30 16 C -0.5349 -0.1685 -0.9679 0
M  V30 17 N -1.0908 -1.3604 -0.6728 0
M  V30 18 C -1.4739 -3.2464 0.8146 0
M  V30 19 N -0.7986 0.3935 -2.2125 0
M  V30 20 C 0.3239 0.7521 -3.0763 0
M  V30 21 C -2.0438 -0.0185 -2.8734 0
M  V30 22 C 1.0251 -0.4708 -3.5967 0
M  V30 23 C -3.2646 0.5875 -2.1737 0
M  V30 24 C 2.4204 -0.3651 -4.1611 0
M  V30 25 C 2.1925 -1.0764 -2.8566 0
M  V30 26 C -4.5537 0.2272 -2.8954 0
M  V30 27 H -0.3509 0.3198 6.4475 0
M  V30 28 H 3.4906 0.3374 3.3068 0
M  V30 29 H 0.3975 2.5588 1.9476 0
M  V30 30 H 2.1458 2.4751 1.6675 0
M  V30 31 H 3.8815 0.0811 5.7298 0
M  V30 32 H 0.3138 2.5869 -0.3942 0
M  V30 33 H 1.8715 1.7074 -0.5459 0
M  V30 34 H -1.6106 -3.8189 -0.1078 0
M  V30 35 H -0.8544 -3.8376 1.4958 0
M  V30 36 H -2.4518 -3.0841 1.2775 0
M  V30 37 H 1.0265 1.4227 -2.5749 0
M  V30 38 H -0.0465 1.3277 -3.9341 0
M  V30 39 H -2.1227 -1.1113 -2.9365 0
M  V30 40 H -2.0432 0.3388 -3.9114 0
M  V30 41 H 0.3422 -1.1483 -4.0975 0
M  V30 42 H -3.3313 0.2397 -1.1366 0
M  V30 43 H -3.1647 1.6791 -2.1346 0
M  V30 44 H 2.926 0.5931 -4.1324 0
M  V30 45 H 2.6623 -0.9676 -5.0297 0
M  V30 46 H 2.5401 -0.6001 -1.9474 0
M  V30 47 H 2.2647 -2.1583 -2.839 0
M  V30 48 H -5.4125 0.6705 -2.3814 0
M  V30 49 H -4.5452 0.5998 -3.9247 0
M  V30 50 H -4.6968 -0.8577 -2.9229 0
M  V30 END ATOM
M  V30 BEGIN BOND
M  V30 1 1 1 2
M  V30 2 2 2 3
M  V30 3 1 2 4
M  V30 4 1 3 5
M  V30 5 1 3 6
M  V30 6 2 4 7
M  V30 7 1 5 8
M  V30 8 1 5 9
M  V30 9 2 6 10
M  V30 10 1 7 11
M  V30 11 2 8 12
M  V30 12 1 8 13
M  V30 13 1 9 14
M  V30 14 1 12 15
M  V30 15 2 13 16
M  V30 16 2 15 17
M  V30 17 1 15 18
M  V30 18 1 16 19
M  V30 19 1 19 20
M  V30 20 1 19 21
M  V30 21 1 20 22
M  V30 22 1 21 23
M  V30 23 1 22 24
M  V30 24 1 22 25
M  V30 25 1 23 26
M  V30 26 1 7 10
M  V30 27 1 13 14
M  V30 28 1 16 17
M  V30 29 1 24 25
M  V30 30 1 4 27
M  V30 31 1 6 28
M  V30 32 1 9 29
M  V30 33 1 9 30
M  V30 34 1 10 31
M  V30 35 1 14 32
M  V30 36 1 14 33
M  V30 37 1 18 34
M  V30 38 1 18 35
M  V30 39 1 18 36
M  V30 40 1 20 37
M  V30 41 1 20 38
M  V30 42 1 21 39
M  V30 43 1 21 40
M  V30 44 1 22 41
M  V30 45 1 23 42
M  V30 46 1 23 43
M  V30 47 1 24 44
M  V30 48 1 24 45
M  V30 49 1 25 46
M  V30 50 1 25 47
M  V30 51 1 26 48
M  V30 52 1 26 49
M  V30 53 1 26 50
M  V30 END BOND
M  V30 END CTAB
M  END
>  <level_0>
388

>  <index>
388

>  <NO.>
389

>  <Name>
schembl5488979

>  <SMILES>
CCCN(CC1CC1)c1nc(C)nc2c1CCN2c1ccc(Cl)cc1Cl

>  <logBB>
-0.22

>  <Class>
1

>  <MW>
390.14

>  <nHBAcc>
4

>  <nHBDon>
0

>  <SLogP>
5.41

>  <TopoPSA>
32.26

>  <MMFF94 Energy>
-9.8585

$$$$
OCC(O)CO
Actelion Java MolfileCreator 2.0

  0  0  0  0  0  0              0 V3000
M  V30 BEGIN CTAB
M  V30 COUNTS 14 13 0 0 0
M  V30 BEGIN ATOM
M  V30 1 O 1.2893 0.5307 -0.8341 0
M  V30 2 C 0.0096 -0.1032 -0.6892 0
M  V30 3 C 0.1619 -1.2434 0.3217 0
M  V30 4 C -1.0343 0.9412 -0.2537 0
M  V30 5 O 0.6589 -0.7342 1.561 0
M  V30 6 O -0.7683 1.5191 1.0228 0
M  V30 7 H 1.8593 -0.0681 -1.347 0
M  V30 8 H -0.2806 -0.5047 -1.6665 0
M  V30 9 H 0.8856 -1.9817 -0.038 0
M  V30 10 H -0.792 -1.7453 0.5074 0
M  V30 11 H -2.0299 0.4877 -0.214 0
M  V30 12 H -1.0598 1.7644 -0.9748 0
M  V30 13 H 1.4084 -0.1487 1.3211 0
M  V30 14 H -0.4723 0.7992 1.6153 0
M  V30 END ATOM
M  V30 BEGIN BOND
M  V30 1 1 1 2
M  V30 2 1 2 3
M  V30 3 1 2 4
M  V30 4 1 3 5
M  V30 5 1 4 6
M  V30 6 1 1 7
M  V30 7 1 2 8
M  V30 8 1 3 9
M  V30 9 1 3 10
M  V30 10 1 4 11
M  V30 11 1 4 12
M  V30 12 1 5 13
M  V30 13 1 6 14
M  V30 END BOND
M  V30 END CTAB
M  END
>  <level_0>
399

>  <index>
399

>  <NO.>
400

>  <Name>
glycerol

>  <SMILES>
OCC(O)CO

>  <logBB>
-0.21

>  <Class>
1

>  <MW>
92.05

>  <nHBAcc>
3

>  <nHBDon>
3

>  <SLogP>
-1.67

>  <TopoPSA>
60.69

>  <MMFF94 Energy>
40.837

$$$$
CCC1(C)C(=O)NC(=O)NC1=O
Actelion Java MolfileCreator 2.0

  0  0  0  0  0  0              0 V3000
M  V30 BEGIN CTAB
M  V30 COUNTS 22 22 0 0 0
M  V30 BEGIN ATOM
M  V30 1 O -1.6464 -3.0594 1.568 0
M  V30 2 C -1.1406 -1.9939 1.2333 0
M  V30 3 N -1.882 -0.8626 1.0972 0
M  V30 4 N 0.1985 -1.8692 1.0375 0
M  V30 5 C -1.4048 0.3777 0.7767 0
M  V30 6 C 0.8593 -0.7121 0.7327 0
M  V30 7 O -2.1313 1.3633 0.8859 0
M  V30 8 C 0.0058 0.432 0.2072 0
M  V30 9 O 2.0828 -0.6589 0.8344 0
M  V30 10 C -0.1442 0.2756 -1.3303 0
M  V30 11 C 0.6418 1.7761 0.5874 0
M  V30 12 C 1.1313 0.4849 -2.1385 0
M  V30 13 H -2.8555 -0.9253 1.3615 0
M  V30 14 H 0.7645 -2.6743 1.267 0
M  V30 15 H -0.8974 0.9852 -1.6986 0
M  V30 16 H -0.5347 -0.7232 -1.5669 0
M  V30 17 H 0.1048 2.6164 0.1328 0
M  V30 18 H 1.6905 1.8422 0.2789 0
M  V30 19 H 0.6192 1.9219 1.6742 0
M  V30 20 H 1.9188 -0.2116 -1.8382 0
M  V30 21 H 1.5092 1.5062 -2.037 0
M  V30 22 H 0.9278 0.316 -3.2012 0
M  V30 END ATOM
M  V30 BEGIN BOND
M  V30 1 2 1 2
M  V30 2 1 2 3
M  V30 3 1 2 4
M  V30 4 1 3 5
M  V30 5 1 4 6
M  V30 6 2 5 7
M  V30 7 1 5 8
M  V30 8 2 6 9
M  V30 9 1 8 10
M  V30 10 1 8 11
M  V30 11 1 10 12
M  V30 12 1 6 8
M  V30 13 1 3 13
M  V30 14 1 4 14
M  V30 15 1 10 15
M  V30 16 1 10 16
M  V30 17 1 11 17
M  V30 18 1 11 18
M  V30 19 1 11 19
M  V30 20 1 12 20
M  V30 21 1 12 21
M  V30 22 1 12 22
M  V30 END BOND
M  V30 END CTAB
M  END
>  <level_0>
403

>  <index>
403

>  <NO.>
404

>  <Name>
5-methyl-5-ethyl barbituric acid (nsc 30403)

>  <SMILES>
CCC1(C)C(=O)NC(=O)NC1=O

>  <logBB>
-0.2

>  <Class>
1

>  <MW>
170.07

>  <nHBAcc>
3

>  <nHBDon>
2

>  <SLogP>
-0.23

>  <TopoPSA>
75.27

>  <MMFF94 Energy>
-128.07

$$$$
CCO
Actelion Java MolfileCreator 2.0

  0  0  0  0  0  0              0 V3000
M  V30 BEGIN CTAB
M  V30 COUNTS 9 8 0 0 0
M  V30 BEGIN ATOM
M  V30 1 O 0.8061 -1.0261 0.7328 0
M  V30 2 C 0.0618 0.1624 0.5116 0
M  V30 3 C -0.3311 0.2337 -0.9484 0
M  V30 4 H 1.0429 -1.043 1.6758 0
M  V30 5 H -0.8278 0.1448 1.1482 0
M  V30 6 H 0.681 1.0221 0.785 0
M  V30 7 H 0.5577 0.2275 -1.5879 0
M  V30 8 H -0.9311 -0.638 -1.2295 0
M  V30 9 H -0.9075 1.1401 -1.1539 0
M  V30 END ATOM
M  V30 BEGIN BOND
M  V30 1 1 1 2
M  V30 2 1 2 3
M  V30 3 1 1 4
M  V30 4 1 2 5
M  V30 5 1 2 6
M  V30 6 1 3 7
M  V30 7 1 3 8
M  V30 8 1 3 9
M  V30 END BOND
M  V30 END CTAB
M  END
>  <level_0>
407

>  <index>
407

>  <NO.>
408

>  <Name>
ethanol

>  <SMILES>
CCO

>  <logBB>
-0.2

>  <Class>
1

>  <MW>
46.04

>  <nHBAcc>
1

>  <nHBDon>
1

>  <SLogP>
-0.0

>  <TopoPSA>
20.23

>  <MMFF94 Energy>
-1.5171

$$$$
Clc1ccc(C(Cn2ccnc2)OCc2ccsc2Cl)c(Cl)c1
Actelion Java MolfileCreator 2.0

  0  0  0  0  0  0              0 V3000
M  V30 BEGIN CTAB
M  V30 COUNTS 36 38 0 0 0
M  V30 BEGIN ATOM
M  V30 1 Cl -1.1745 -2.5182 -3.0224 0
M  V30 2 C 0.2574 -2.3491 -2.0672 0
M  V30 3 C 0.3388 -1.4264 -1.0073 0
M  V30 4 C 1.3421 -3.1686 -2.3945 0
M  V30 5 C 1.5517 -1.3475 -0.295 0
M  V30 6 C -0.8209 -0.5068 -0.6468 0 CFG=1
M  V30 7 C 2.5255 -3.0717 -1.6696 0
M  V30 8 C 2.6363 -2.1642 -0.6225 0
M  V30 9 O -0.7149 -0.1016 0.7277 0
M  V30 10 C -0.9173 0.7356 -1.5552 0
M  V30 11 Cl 3.8603 -4.0778 -2.0753 0
M  V30 12 C -1.9664 -0.0706 1.4112 0
M  V30 13 N 0.2815 1.5516 -1.5946 0
M  V30 14 C -1.7755 0.4456 2.8 0
M  V30 15 C 0.7142 2.3926 -0.6094 0
M  V30 16 C 1.1526 1.6584 -2.6428 0
M  V30 17 C -1.4451 -0.3106 3.9034 0
M  V30 18 C -1.8925 1.8299 3.1744 0
M  V30 19 N 1.8105 3.0232 -0.9654 0
M  V30 20 C 2.0951 2.5698 -2.2272 0
M  V30 21 Cl -1.1794 -2.0112 3.9616 0
M  V30 22 S -1.2971 0.5824 5.3351 0
M  V30 23 C -1.6596 2.0402 4.5172 0
M  V30 24 H 1.2659 -3.8789 -3.2136 0
M  V30 25 H 1.6665 -0.6362 0.5232 0
M  V30 26 H -1.7476 -1.0855 -0.7489 0
M  V30 27 H 3.5614 -2.08 -0.0572 0
M  V30 28 H -1.7228 1.3968 -1.214 0
M  V30 29 H -1.1448 0.4481 -2.5877 0
M  V30 30 H -2.3991 -1.0776 1.431 0
M  V30 31 H -2.6629 0.5816 0.8706 0
M  V30 32 H 0.2053 2.5032 0.3396 0
M  V30 33 H 1.0431 1.0991 -3.5612 0
M  V30 34 H -2.13 2.6341 2.4876 0
M  V30 35 H 2.9611 2.9256 -2.77 0
M  V30 36 H -1.6797 2.9778 5.0566 0
M  V30 END ATOM
M  V30 BEGIN BOND
M  V30 1 1 1 2
M  V30 2 2 2 3
M  V30 3 1 2 4
M  V30 4 1 3 5
M  V30 5 1 3 6
M  V30 6 2 4 7
M  V30 7 2 5 8
M  V30 8 1 6 9
M  V30 9 1 6 10
M  V30 10 1 7 11
M  V30 11 1 9 12
M  V30 12 1 10 13
M  V30 13 1 12 14
M  V30 14 1 13 15
M  V30 15 1 13 16
M  V30 16 2 14 17
M  V30 17 1 14 18
M  V30 18 2 15 19
M  V30 19 2 16 20
M  V30 20 1 17 21
M  V30 21 1 17 22
M  V30 22 2 18 23
M  V30 23 1 7 8
M  V30 24 1 19 20
M  V30 25 1 22 23
M  V30 26 1 4 24
M  V30 27 1 5 25
M  V30 28 1 6 26
M  V30 29 1 8 27
M  V30 30 1 10 28
M  V30 31 1 10 29
M  V30 32 1 12 30
M  V30 33 1 12 31
M  V30 34 1 15 32
M  V30 35 1 16 33
M  V30 36 1 18 34
M  V30 37 1 20 35
M  V30 38 1 23 36
M  V30 END BOND
M  V30 BEGIN COLLECTION
M  V30 MDLV30/STERAC1 ATOMS=(1 6)
M  V30 END COLLECTION
M  V30 END CTAB
M  END
>  <level_0>
408

>  <index>
408

>  <NO.>
409

>  <Name>
tz-3

>  <SMILES>
Clc1ccc(C(Cn2ccnc2)OCc2ccsc2Cl)c(Cl)c1

>  <logBB>
-0.2

>  <Class>
1

>  <MW>
385.98

>  <nHBAcc>
3

>  <nHBDon>
0

>  <SLogP>
5.86

>  <TopoPSA>
27.05

>  <MMFF94 Energy>
29.164

$$$$
CCC(=O)N[C@@H]1C(=O)NC(=O)NC1=NC[C@H](O)[C@H](O)[C@H](O)CO
Actelion Java MolfileCreator 2.0

  0  0  0  0  0  0              0 V3000
M  V30 BEGIN CTAB
M  V30 COUNTS 43 43 0 0 0
M  V30 BEGIN ATOM
M  V30 1 O -5.261 -2.4315 0.5486 0
M  V30 2 C -4.2335 -2.1109 -0.0391 0
M  V30 3 N -4.062 -2.3486 -1.3681 0
M  V30 4 N -3.2352 -1.4349 0.6008 0
M  V30 5 C -2.9736 -1.9814 -2.1202 0
M  V30 6 C -2.0447 -1.0545 0.0417 0
M  V30 7 O -3.0508 -1.9707 -3.3465 0
M  V30 8 C -1.7141 -1.6717 -1.3142 0 CFG=2
M  V30 9 N -1.204 -0.2659 0.6121 0
M  V30 10 N -0.7869 -0.8028 -2.0235 0
M  V30 11 C -1.5048 0.3623 1.9015 0
M  V30 12 C 0.1173 -1.3061 -2.9257 0
M  V30 13 C -0.4565 1.4509 2.2146 0 CFG=2
M  V30 14 O 0.2132 -2.5015 -3.179 0
M  V30 15 C 0.9896 -0.2343 -3.5472 0
M  V30 16 O -0.5875 2.4943 1.2413 0
M  V30 17 C 0.9833 0.8816 2.3066 0 CFG=2
M  V30 18 C 1.9602 -0.7967 -4.5691 0
M  V30 19 O 1.0593 -0.1462 3.3051 0
M  V30 20 C 2.0334 1.9665 2.6223 0 CFG=2
M  V30 21 O 1.9371 3.0681 1.7061 0
M  V30 22 C 3.4602 1.4079 2.5596 0
M  V30 23 O 4.3667 2.4905 2.7974 0
M  V30 24 H -4.862 -2.7034 -1.8728 0
M  V30 25 H -3.4547 -1.1655 1.5479 0
M  V30 26 H -1.2181 -2.6306 -1.1153 0
M  V30 27 H -0.7258 0.1645 -1.7238 0
M  V30 28 H -2.4911 0.8408 1.8595 0
M  V30 29 H -1.5112 -0.3921 2.6959 0
M  V30 30 H -0.7215 1.8883 3.1852 0
M  V30 31 H 1.5454 0.267 -2.7468 0
M  V30 32 H 0.3402 0.5079 -4.025 0
M  V30 33 H 0.2691 2.975 1.2196 0
M  V30 34 H 1.2426 0.4333 1.3399 0
M  V30 35 H 2.5688 0.0049 -4.9986 0
M  V30 36 H 1.4266 -1.2962 -5.3845 0
M  V30 37 H 2.6331 -1.5291 -4.1108 0
M  V30 38 H 0.777 0.235 4.1551 0
M  V30 39 H 1.8608 2.376 3.6252 0
M  V30 40 H 2.7784 3.5594 1.8306 0
M  V30 41 H 3.6268 0.6346 3.315 0
M  V30 42 H 3.681 1.0083 1.5647 0
M  V30 43 H 5.2642 2.1122 2.7659 0
M  V30 END ATOM
M  V30 BEGIN BOND
M  V30 1 2 1 2
M  V30 2 1 2 3
M  V30 3 1 2 4
M  V30 4 1 3 5
M  V30 5 1 4 6
M  V30 6 2 5 7
M  V30 7 1 5 8
M  V30 8 2 6 9
M  V30 9 1 8 10
M  V30 10 1 9 11
M  V30 11 1 10 12
M  V30 12 1 11 13
M  V30 13 2 12 14
M  V30 14 1 12 15
M  V30 15 1 13 16
M  V30 16 1 13 17
M  V30 17 1 15 18
M  V30 18 1 17 19
M  V30 19 1 17 20
M  V30 20 1 20 21
M  V30 21 1 20 22
M  V30 22 1 22 23
M  V30 23 1 6 8
M  V30 24 1 3 24
M  V30 25 1 4 25
M  V30 26 1 8 26
M  V30 27 1 10 27
M  V30 28 1 11 28
M  V30 29 1 11 29
M  V30 30 1 13 30
M  V30 31 1 15 31
M  V30 32 1 15 32
M  V30 33 1 16 33
M  V30 34 1 17 34
M  V30 35 1 18 35
M  V30 36 1 18 36
M  V30 37 1 18 37
M  V30 38 1 19 38
M  V30 39 1 20 39
M  V30 40 1 21 40
M  V30 41 1 22 41
M  V30 42 1 22 42
M  V30 43 1 23 43
M  V30 END BOND
M  V30 BEGIN COLLECTION
M  V30 MDLV30/STEABS ATOMS=(4 8 13 17 20)
M  V30 END COLLECTION
M  V30 END CTAB
M  END
>  <level_0>
418

>  <index>
418

>  <NO.>
419

>  <Name>
y19

>  <SMILES>
CCC(=O)N[C@@H]1C(=O)NC(=O)NC1=NC[C@H](O)[C@H](O)[C@H](O)CO

>  <logBB>
-0.18

>  <Class>
1

>  <MW>
332.13

>  <nHBAcc>
8

>  <nHBDon>
7

>  <SLogP>
-3.81

>  <TopoPSA>
180.58

>  <MMFF94 Energy>
-8.7837

$$$$
CC(N)C(=O)O
Actelion Java MolfileCreator 2.0

  0  0  0  0  0  0              0 V3000
M  V30 BEGIN CTAB
M  V30 COUNTS 13 12 0 0 0
M  V30 BEGIN ATOM
M  V30 1 O -0.3023 -2.0425 -0.3779 0
M  V30 2 C 0.3079 -1.1148 0.1328 0
M  V30 3 O 1.0997 -1.329 1.2018 0
M  V30 4 C 0.3131 0.341 -0.3441 0 CFG=1
M  V30 5 N -0.5467 0.4904 -1.5401 0
M  V30 6 C -0.1857 1.2744 0.7502 0
M  V30 7 H 1.0104 -2.2895 1.3765 0
M  V30 8 H 1.3385 0.5987 -0.6296 0
M  V30 9 H -1.493 0.1915 -1.2944 0
M  V30 10 H -0.2434 -0.1966 -2.2341 0
M  V30 11 H 0.4696 1.2349 1.6271 0
M  V30 12 H -1.1931 0.9997 1.0838 0
M  V30 13 H -0.211 2.3131 0.4027 0
M  V30 END ATOM
M  V30 BEGIN BOND
M  V30 1 2 1 2
M  V30 2 1 2 3
M  V30 3 1 2 4
M  V30 4 1 4 5
M  V30 5 1 4 6
M  V30 6 1 3 7
M  V30 7 1 4 8
M  V30 8 1 5 9
M  V30 9 1 5 10
M  V30 10 1 6 11
M  V30 11 1 6 12
M  V30 12 1 6 13
M  V30 END BOND
M  V30 BEGIN COLLECTION
M  V30 MDLV30/STERAC1 ATOMS=(1 4)
M  V30 END COLLECTION
M  V30 END CTAB
M  END
>  <level_0>
425

>  <index>
425

>  <NO.>
426

>  <Name>
dl-alanine

>  <SMILES>
CC(N)C(=O)O

>  <logBB>
-0.17

>  <Class>
1

>  <MW>
89.05

>  <nHBAcc>
2

>  <nHBDon>
2

>  <SLogP>
-0.58

>  <TopoPSA>
63.32

>  <MMFF94 Energy>
20.516

$$$$
[Kr]
Actelion Java MolfileCreator 2.0

  0  0  0  0  0  0              0 V3000
M  V30 BEGIN CTAB
M  V30 COUNTS 1 0 0 0 0
M  V30 BEGIN ATOM
M  V30 1 Kr 0.0 0.0 0.0 0
M  V30 END ATOM
M  V30 BEGIN BOND
M  V30 END BOND
M  V30 END CTAB
M  END
>  <level_0>
436

>  <index>
436

>  <NO.>
437

>  <Name>
7439-90-9

>  <SMILES>
[Kr]

>  <logBB>
-0.16

>  <Class>
1

>  <MW>
83.91

>  <nHBAcc>
0

>  <nHBDon>
0

>  <SLogP>
0.0

>  <TopoPSA>
0.0

>  <MMFF94 Energy>
Couldn't assign an atom type to atom 0 (Kr)

$$$$
NC(N)=O
Actelion Java MolfileCreator 2.0

  0  0  0  0  0  0              0 V3000
M  V30 BEGIN CTAB
M  V30 COUNTS 8 7 0 0 0
M  V30 BEGIN ATOM
M  V30 1 O -0.4257 -0.4257 -1.6327 0
M  V30 2 C -0.109 -0.1233 -0.4937 0
M  V30 3 N -1.0023 0.0139 0.5041 0
M  V30 4 N 1.1648 0.103 -0.122 0
M  V30 5 H -0.7442 0.263 1.4437 0
M  V30 6 H -1.9756 -0.144 0.2832 0
M  V30 7 H 1.4286 0.3524 0.8159 0
M  V30 8 H 1.8796 0.0143 -0.8307 0
M  V30 END ATOM
M  V30 BEGIN BOND
M  V30 1 2 1 2
M  V30 2 1 2 3
M  V30 3 1 2 4
M  V30 4 1 3 5
M  V30 5 1 3 6
M  V30 6 1 4 7
M  V30 7 1 4 8
M  V30 END BOND
M  V30 END CTAB
M  END
>  <level_0>
444

>  <index>
444

>  <NO.>
445

>  <Name>
urea

>  <SMILES>
NC(N)=O

>  <logBB>
-0.14

>  <Class>
1

>  <MW>
60.03

>  <nHBAcc>
1

>  <nHBDon>
2

>  <SLogP>
-0.98

>  <TopoPSA>
69.11

>  <MMFF94 Energy>
-115.37

$$$$
CCC1(O)CC2CN(CCc3c([nH]c4ccccc34)C(C(=O)OC)(c3cc4c(cc3OC)N(C)C3C(O)(C(=O)OC)C(OC(C)=O)C5(CC)C=CCN6CCC43C65)C2)C1
Actelion Java MolfileCreator 2.0

  0  0  0  0  0  0              0 V3000
M  V30 BEGIN CTAB
M  V30 COUNTS 117 125 0 0 0
M  V30 BEGIN ATOM
M  V30 1 O 2.2553 -3.1424 3.788 0
M  V30 2 C 2.2769 -2.7678 2.6186 0
M  V30 3 O 3.3534 -2.953 1.7831 0
M  V30 4 C 1.0794 -2.0836 1.8591 0
M  V30 5 C 4.4634 -3.5934 2.4089 0
M  V30 6 C 1.5378 -0.7881 1.0935 0
M  V30 7 C 0.6076 -3.229 0.9001 0
M  V30 8 C 0.0531 -1.6186 2.9466 0
M  V30 9 C 2.5347 0.0814 1.6184 0
M  V30 10 C 0.9275 -0.4337 -0.1331 0
M  V30 11 N 1.2927 -3.4062 -0.295 0
M  V30 12 C -0.3078 -4.2895 0.9638 0
M  V30 13 C -1.2429 -0.8756 2.5055 0
M  V30 14 O 2.9998 -0.2182 2.8726 0
M  V30 15 C 2.9917 1.1807 0.874 0
M  V30 16 C 1.3919 0.6628 -0.8466 0
M  V30 17 C 0.7175 -4.3681 -1.0777 0
M  V30 18 C -0.2833 -4.9533 -0.3157 0
M  V30 19 C -1.1868 -4.7512 2.099 0
M  V30 20 C -2.1956 -1.775 1.7253 0
M  V30 21 C -2.0354 -0.2875 3.7069 0
M  V30 22 C 3.9033 0.688 3.4915 0
M  V30 23 C 2.4308 1.4545 -0.3588 0
M  V30 24 C 1.0493 1.1056 -2.251 0
M  V30 25 C 1.0302 -4.7779 -2.379 0
M  V30 26 C -1.0127 -6.0208 -0.8826 0
M  V30 27 C -2.6157 -4.1671 2.1157 0
M  V30 28 N -2.5569 -2.829 2.6512 0
M  V30 29 C -2.8508 -1.3079 4.5574 0
M  V30 30 N 2.756 2.4718 -1.2334 0
M  V30 31 C 1.7165 2.527 -2.2998 0
M  V30 32 C -0.4014 1.038 -2.7419 0
M  V30 33 C 1.7865 0.1452 -3.2336 0
M  V30 34 C 0.2843 -5.8267 -2.9223 0
M  V30 35 C -0.7235 -6.4426 -2.1858 0
M  V30 36 C -3.5189 -2.3855 3.6428 0
M  V30 37 O -3.9119 -0.5765 5.2013 0
M  V30 38 C -2.0439 -2.0141 5.6773 0
M  V30 39 C 3.9324 3.3042 -1.1807 0
M  V30 40 C 0.7558 3.728 -2.0266 0
M  V30 41 N -0.1974 0.9569 -4.207 0
M  V30 42 C -1.3417 2.2353 -2.4004 0
M  V30 43 C 0.8536 -0.0303 -4.424 0
M  V30 44 C -1.2445 -1.0981 6.5966 0
M  V30 45 O 0.5379 3.8769 -0.6055 0
M  V30 46 C 1.4594 4.9962 -2.5512 0
M  V30 47 C -0.6173 3.5886 -2.7148 0
M  V30 48 C -1.4385 0.6101 -4.9078 0
M  V30 49 C -2.569 2.1896 -3.3274 0
M  V30 50 C -1.8445 2.1486 -0.9254 0
M  V30 51 O 1.8142 5.9355 -1.8455 0
M  V30 52 O 1.6841 4.9254 -3.8948 0
M  V30 53 O -1.4927 4.6722 -2.2687 0
M  V30 54 C -2.5973 1.4443 -4.4438 0
M  V30 55 C -2.7784 0.9834 -0.6035 0
M  V30 56 C 2.2586 6.1051 -4.4585 0
M  V30 57 C -1.6505 5.7498 -3.077 0
M  V30 58 O -1.1223 5.9091 -4.1671 0
M  V30 59 C -2.572 6.7387 -2.4321 0
M  V30 60 H 5.2647 -3.6797 1.6699 0
M  V30 61 H 4.8309 -2.9936 3.2475 0
M  V30 62 H 4.1891 -4.5998 2.74 0
M  V30 63 H 0.5754 -0.9424 3.639 0
M  V30 64 H -0.2014 -2.481 3.5642 0
M  V30 65 H 0.122 -1.0332 -0.5484 0
M  V30 66 H 2.0927 -2.8544 -0.5755 0
M  V30 67 H -0.9642 -0.0236 1.8763 0
M  V30 68 H 3.7736 1.8318 1.2432 0
M  V30 69 H -0.6818 -4.575 3.0565 0
M  V30 70 H -1.2766 -5.8442 2.0357 0
M  V30 71 H -1.7347 -2.127 0.8022 0
M  V30 72 H -3.0861 -1.2241 1.3974 0
M  V30 73 H -2.7531 0.4354 3.2898 0
M  V30 74 H -1.3793 0.3255 4.3334 0
M  V30 75 H 4.8545 0.7236 2.9509 0
M  V30 76 H 4.1088 0.3166 4.5 0
M  V30 77 H 3.4618 1.6854 3.5879 0
M  V30 78 H 1.8259 -4.3074 -2.9468 0
M  V30 79 H -1.7983 -6.5137 -0.3182 0
M  V30 80 H -3.0882 -4.1966 1.127 0
M  V30 81 H -3.217 -4.8076 2.7724 0
M  V30 82 H 2.204 2.6556 -3.2739 0
M  V30 83 H -0.8564 0.0957 -2.4073 0
M  V30 84 H 2.7581 0.5405 -3.5525 0
M  V30 85 H 1.9784 -0.8403 -2.79 0
M  V30 86 H 0.5003 -6.1716 -3.9306 0
M  V30 87 H -1.2891 -7.2621 -2.6219 0
M  V30 88 H -4.4234 -1.9855 3.1659 0
M  V30 89 H -3.8626 -3.2175 4.2704 0
M  V30 90 H -3.5115 0.1797 5.6623 0
M  V30 91 H -1.3688 -2.769 5.2662 0
M  V30 92 H -2.7524 -2.5596 6.3158 0
M  V30 93 H 4.8355 2.6927 -1.0832 0
M  V30 94 H 4.0387 3.8985 -2.0932 0
M  V30 95 H 3.8813 3.9911 -0.33 0
M  V30 96 H 1.3732 0.1431 -5.3715 0
M  V30 97 H 0.4671 -1.0573 -4.428 0
M  V30 98 H -1.8694 -0.3139 7.0329 0
M  V30 99 H -0.4085 -0.63 6.0701 0
M  V30 100 H -0.8206 -1.681 7.4213 0
M  V30 101 H 1.4242 3.7847 -0.2039 0
M  V30 102 H -0.4843 3.6598 -3.8027 0
M  V30 103 H -1.2939 0.7752 -5.9814 0
M  V30 104 H -1.7053 -0.4446 -4.7656 0
M  V30 105 H -3.4299 2.8014 -3.0666 0
M  V30 106 H -0.9975 2.0777 -0.2378 0
M  V30 107 H -2.3789 3.0679 -0.6554 0
M  V30 108 H -3.4903 1.4355 -5.0627 0
M  V30 109 H -2.3009 0.0165 -0.776 0
M  V30 110 H -3.0636 1.0292 0.4526 0
M  V30 111 H -3.7021 1.0242 -1.1875 0
M  V30 112 H 2.3044 5.9741 -5.543 0
M  V30 113 H 1.6396 6.9815 -4.242 0
M  V30 114 H 3.2762 6.2463 -4.0818 0
M  V30 115 H -3.5461 6.2762 -2.2539 0
M  V30 116 H -2.1365 7.0935 -1.4946 0
M  V30 117 H -2.7102 7.5942 -3.0993 0
M  V30 END ATOM
M  V30 BEGIN BOND
M  V30 1 2 1 2
M  V30 2 1 2 3
M  V30 3 1 2 4
M  V30 4 1 3 5
M  V30 5 1 4 6
M  V30 6 1 4 7
M  V30 7 1 4 8
M  V30 8 2 6 9
M  V30 9 1 6 10
M  V30 10 1 7 11
M  V30 11 2 7 12
M  V30 12 1 8 13
M  V30 13 1 9 14
M  V30 14 1 9 15
M  V30 15 2 10 16
M  V30 16 1 11 17
M  V30 17 1 12 18
M  V30 18 1 12 19
M  V30 19 1 13 20
M  V30 20 1 13 21
M  V30 21 1 14 22
M  V30 22 2 15 23
M  V30 23 1 16 24
M  V30 24 1 17 25
M  V30 25 1 18 26
M  V30 26 1 19 27
M  V30 27 1 20 28
M  V30 28 1 21 29
M  V30 29 1 23 30
M  V30 30 1 24 31
M  V30 31 1 24 32
M  V30 32 1 24 33
M  V30 33 2 25 34
M  V30 34 2 26 35
M  V30 35 1 28 36
M  V30 36 1 29 37
M  V30 37 1 29 38
M  V30 38 1 30 39
M  V30 39 1 31 40
M  V30 40 1 32 41
M  V30 41 1 32 42
M  V30 42 1 33 43
M  V30 43 1 38 44
M  V30 44 1 40 45
M  V30 45 1 40 46
M  V30 46 1 40 47
M  V30 47 1 41 48
M  V30 48 1 42 49
M  V30 49 1 42 50
M  V30 50 2 46 51
M  V30 51 1 46 52
M  V30 52 1 47 53
M  V30 53 1 48 54
M  V30 54 1 50 55
M  V30 55 1 52 56
M  V30 56 1 53 57
M  V30 57 2 57 58
M  V30 58 1 57 59
M  V30 59 1 16 23
M  V30 60 2 17 18
M  V30 61 1 27 28
M  V30 62 1 29 36
M  V30 63 1 30 31
M  V30 64 1 34 35
M  V30 65 1 41 43
M  V30 66 1 42 47
M  V30 67 2 49 54
M  V30 68 1 5 60
M  V30 69 1 5 61
M  V30 70 1 5 62
M  V30 71 1 8 63
M  V30 72 1 8 64
M  V30 73 1 10 65
M  V30 74 1 11 66
M  V30 75 1 13 67
M  V30 76 1 15 68
M  V30 77 1 19 69
M  V30 78 1 19 70
M  V30 79 1 20 71
M  V30 80 1 20 72
M  V30 81 1 21 73
M  V30 82 1 21 74
M  V30 83 1 22 75
M  V30 84 1 22 76
M  V30 85 1 22 77
M  V30 86 1 25 78
M  V30 87 1 26 79
M  V30 88 1 27 80
M  V30 89 1 27 81
M  V30 90 1 31 82
M  V30 91 1 32 83
M  V30 92 1 33 84
M  V30 93 1 33 85
M  V30 94 1 34 86
M  V30 95 1 35 87
M  V30 96 1 36 88
M  V30 97 1 36 89
M  V30 98 1 37 90
M  V30 99 1 38 91
M  V30 100 1 38 92
M  V30 101 1 39 93
M  V30 102 1 39 94
M  V30 103 1 39 95
M  V30 104 1 43 96
M  V30 105 1 43 97
M  V30 106 1 44 98
M  V30 107 1 44 99
M  V30 108 1 44 100
M  V30 109 1 45 101
M  V30 110 1 47 102
M  V30 111 1 48 103
M  V30 112 1 48 104
M  V30 113 1 49 105
M  V30 114 1 50 106
M  V30 115 1 50 107
M  V30 116 1 54 108
M  V30 117 1 55 109
M  V30 118 1 55 110
M  V30 119 1 55 111
M  V30 120 1 56 112
M  V30 121 1 56 113
M  V30 122 1 56 114
M  V30 123 1 59 115
M  V30 124 1 59 116
M  V30 125 1 59 117
M  V30 END BOND
M  V30 END CTAB
M  END
>  <level_0>
462

>  <index>
462

>  <NO.>
463

>  <Name>
vinblastine

>  <SMILES>
CCC1(O)CC2CN(CCc3c([nH]c4ccccc34)C(C(=O)OC)(c3cc4c(cc3OC)N(C)C3C(O)(C(=O)OC)C(OC(C)=O)C5(CC)C=CCN6CCC43C65)C2)C1

>  <logBB>
-0.1

>  <Class>
1

>  <MW>
810.42

>  <nHBAcc>
12

>  <nHBDon>
3

>  <SLogP>
3.99

>  <TopoPSA>
154.1

>  <MMFF94 Energy>
281.01

$$$$
Cn1c(=O)c2c(ncn2C)n(C)c1=O
Actelion Java MolfileCreator 2.0

  0  0  0  0  0  0              0 V3000
M  V30 BEGIN CTAB
M  V30 COUNTS 24 25 0 0 0
M  V30 BEGIN ATOM
M  V30 1 O 3.1547 -0.6303 0.1575 0
M  V30 2 C 1.9443 -0.3921 0.1031 0
M  V30 3 N 1.0105 -1.2352 0.7418 0
M  V30 4 N 1.4399 0.7117 -0.5853 0
M  V30 5 C -0.3766 -1.0609 0.7448 0
M  V30 6 C 1.5571 -2.3755 1.451 0
M  V30 7 C 0.083 0.9255 -0.611 0
M  V30 8 C 2.3336 1.6284 -1.2692 0
M  V30 9 O -1.1702 -1.8087 1.3084 0
M  V30 10 C -0.7881 0.0888 0.0179 0
M  V30 11 N -0.558 1.9518 -1.2365 0
M  V30 12 N -2.0231 0.6172 -0.2267 0
M  V30 13 C -1.8355 1.7409 -0.9875 0
M  V30 14 C -3.2885 0.0975 0.2259 0
M  V30 15 H 0.7851 -2.9881 1.9231 0
M  V30 16 H 2.2478 -2.017 2.2214 0
M  V30 17 H 2.1218 -2.9947 0.7462 0
M  V30 18 H 2.0817 1.645 -2.3343 0
M  V30 19 H 2.2087 2.6308 -0.8472 0
M  V30 20 H 3.3807 1.3331 -1.1628 0
M  V30 21 H -2.6531 2.3631 -1.33 0
M  V30 22 H -3.2874 0.0812 1.3187 0
M  V30 23 H -4.0961 0.7414 -0.1317 0
M  V30 24 H -3.4151 -0.9102 -0.1771 0
M  V30 END ATOM
M  V30 BEGIN BOND
M  V30 1 2 1 2
M  V30 2 1 2 3
M  V30 3 1 2 4
M  V30 4 1 3 5
M  V30 5 1 3 6
M  V30 6 1 4 7
M  V30 7 1 4 8
M  V30 8 2 5 9
M  V30 9 1 5 10
M  V30 10 1 7 11
M  V30 11 1 10 12
M  V30 12 2 11 13
M  V30 13 1 12 14
M  V30 14 2 7 10
M  V30 15 1 12 13
M  V30 16 1 6 15
M  V30 17 1 6 16
M  V30 18 1 6 17
M  V30 19 1 8 18
M  V30 20 1 8 19
M  V30 21 1 8 20
M  V30 22 1 13 21
M  V30 23 1 14 22
M  V30 24 1 14 23
M  V30 25 1 14 24
M  V30 END BOND
M  V30 END CTAB
M  END
>  <level_0>
480

>  <index>
480

>  <NO.>
481

>  <Name>
58-08-2

>  <SMILES>
Cn1c(=O)c2c(ncn2C)n(C)c1=O

>  <logBB>
-0.1

>  <Class>
1

>  <MW>
194.08

>  <nHBAcc>
3

>  <nHBDon>
0

>  <SLogP>
-1.03

>  <TopoPSA>
61.82

>  <MMFF94 Energy>
-123.49

$$$$
CC1(C)O[C@@H]2CO[C@@]3(COS(N)(=O)=O)OC(C)(C)O[C@H]3[C@@H]2O1
Actelion Java MolfileCreator 2.0

  0  0  0  0  0  0              0 V3000
M  V30 BEGIN CTAB
M  V30 COUNTS 43 45 0 0 0
M  V30 BEGIN ATOM
M  V30 1 S 3.8255 0.1625 -2.1149 0
M  V30 2 O 5.2694 0.1725 -2.1377 0
M  V30 3 O 3.0644 -0.4327 -3.1853 0
M  V30 4 O 3.3442 -0.4576 -0.7009 0
M  V30 5 N 3.3803 1.777 -2.0946 0
M  V30 6 C 2.302 0.1272 0.0725 0
M  V30 7 C 0.9005 0.0564 -0.5889 0 CFG=2
M  V30 8 O 0.7325 -1.1731 -1.2986 0
M  V30 9 O 0.7683 1.1372 -1.5268 0
M  V30 10 C -0.2109 0.2909 0.4417 0 CFG=1
M  V30 11 C 0.4021 -2.2769 -0.4615 0
M  V30 12 C -0.1158 2.1027 -0.9534 0
M  V30 13 O -0.5894 1.6637 0.3149 0
M  V30 14 C -1.4087 -0.6388 0.2069 0 CFG=1
M  V30 15 C -0.9804 -2.0882 0.1456 0 CFG=2
M  V30 16 C 0.6354 3.4142 -0.7475 0
M  V30 17 C -1.2895 2.3159 -1.9037 0
M  V30 18 O -2.3209 -0.5849 1.3173 0
M  V30 19 O -0.9975 -2.5048 1.5141 0
M  V30 20 C -2.0656 -1.7533 2.1075 0
M  V30 21 C -1.653 -1.3359 3.5125 0
M  V30 22 C -3.3318 -2.6045 2.1443 0
M  V30 23 H 2.413 1.8151 -2.4347 0
M  V30 24 H 4.0168 2.2894 -2.7047 0
M  V30 25 H 2.5756 1.1529 0.341 0
M  V30 26 H 2.2914 -0.4486 1.0044 0
M  V30 27 H 0.1479 0.1604 1.4682 0
M  V30 28 H 1.1752 -2.424 0.3012 0
M  V30 29 H 0.4082 -3.1779 -1.0841 0
M  V30 30 H -1.9571 -0.3436 -0.6918 0
M  V30 31 H -1.7227 -2.6862 -0.3969 0
M  V30 32 H 1.476 3.2744 -0.0591 0
M  V30 33 H -0.0136 4.1788 -0.307 0
M  V30 34 H 1.0462 3.7925 -1.6892 0
M  V30 35 H -0.9505 2.7074 -2.8689 0
M  V30 36 H -1.8042 1.373 -2.1124 0
M  V30 37 H -2.0282 3.0023 -1.4765 0
M  V30 38 H -2.4263 -0.7244 3.9893 0
M  V30 39 H -1.4448 -2.2081 4.1411 0
M  V30 40 H -0.7376 -0.7348 3.4853 0
M  V30 41 H -4.1659 -2.0546 2.5931 0
M  V30 42 H -3.1698 -3.5322 2.7028 0
M  V30 43 H -3.6428 -2.8861 1.1321 0
M  V30 END ATOM
M  V30 BEGIN BOND
M  V30 1 2 1 2
M  V30 2 2 1 3
M  V30 3 1 1 4
M  V30 4 1 1 5
M  V30 5 1 4 6
M  V30 6 1 6 7
M  V30 7 1 7 8
M  V30 8 1 7 9
M  V30 9 1 7 10
M  V30 10 1 8 11
M  V30 11 1 9 12
M  V30 12 1 10 13
M  V30 13 1 10 14
M  V30 14 1 11 15
M  V30 15 1 12 16
M  V30 16 1 12 17
M  V30 17 1 14 18
M  V30 18 1 15 19
M  V30 19 1 18 20
M  V30 20 1 20 21
M  V30 21 1 20 22
M  V30 22 1 12 13
M  V30 23 1 14 15
M  V30 24 1 19 20
M  V30 25 1 5 23
M  V30 26 1 5 24
M  V30 27 1 6 25
M  V30 28 1 6 26
M  V30 29 1 10 27
M  V30 30 1 11 28
M  V30 31 1 11 29
M  V30 32 1 14 30
M  V30 33 1 15 31
M  V30 34 1 16 32
M  V30 35 1 16 33
M  V30 36 1 16 34
M  V30 37 1 17 35
M  V30 38 1 17 36
M  V30 39 1 17 37
M  V30 40 1 21 38
M  V30 41 1 21 39
M  V30 42 1 21 40
M  V30 43 1 22 41
M  V30 44 1 22 42
M  V30 45 1 22 43
M  V30 END BOND
M  V30 BEGIN COLLECTION
M  V30 MDLV30/STEABS ATOMS=(4 7 10 14 15)
M  V30 END COLLECTION
M  V30 END CTAB
M  END
>  <level_0>
490

>  <index>
490

>  <NO.>
491

>  <Name>
topiramate

>  <SMILES>
CC1(C)O[C@@H]2CO[C@@]3(COS(N)(=O)=O)OC(C)(C)O[C@H]3[C@@H]2O1

>  <logBB>
-0.07

>  <Class>
1

>  <MW>
339.1

>  <nHBAcc>
8

>  <nHBDon>
1

>  <SLogP>
-0.4

>  <TopoPSA>
115.54

>  <MMFF94 Energy>
-68.177

$$$$
Cn1cc(-c2ccncc2)c(-c2ccc(OCc3ccc4ccccc4n3)cc2)n1
Actelion Java MolfileCreator 2.0

  0  0  0  0  0  0              0 V3000
M  V30 BEGIN CTAB
M  V30 COUNTS 50 54 0 0 0
M  V30 BEGIN ATOM
M  V30 1 O 0.7211 -1.1219 1.4427 0
M  V30 2 C -0.2792 -0.6817 0.6216 0
M  V30 3 C 2.0253 -1.2449 0.8692 0
M  V30 4 C -1.5391 -0.6208 1.2205 0
M  V30 5 C -0.1422 -0.3067 -0.7145 0
M  V30 6 C 2.9979 -1.7809 1.8981 0
M  V30 7 C -2.6529 -0.1874 0.4956 0
M  V30 8 C -1.2581 0.1279 -1.4424 0
M  V30 9 N 4.226 -1.2013 1.947 0
M  V30 10 C 2.6508 -2.856 2.7094 0
M  V30 11 C -2.5216 0.202 -0.8423 0
M  V30 12 C 5.1281 -1.6682 2.8294 0
M  V30 13 C 3.5859 -3.3384 3.6184 0
M  V30 14 C -3.6917 0.6664 -1.5903 0
M  V30 15 C 4.8508 -2.7459 3.6949 0
M  V30 16 C 6.3832 -1.0784 2.9002 0
M  V30 17 N -4.8828 0.0617 -1.4327 0
M  V30 18 C -3.7938 1.7394 -2.534 0
M  V30 19 C 5.8271 -3.1994 4.5998 0
M  V30 20 C 7.3575 -1.5256 3.7982 0
M  V30 21 N -5.7067 0.7096 -2.269 0
M  V30 22 C -2.8332 2.7274 -2.9892 0
M  V30 23 C -5.1091 1.7239 -2.9504 0
M  V30 24 C 7.0782 -2.5884 4.6496 0
M  V30 25 C -7.0882 0.3026 -2.3548 0
M  V30 26 C -2.6564 2.9727 -4.3517 0
M  V30 27 C -2.0713 3.4475 -2.0684 0
M  V30 28 C -1.7213 3.9204 -4.7326 0
M  V30 29 C -1.1619 4.3741 -2.5495 0
M  V30 30 N -0.9688 4.6254 -3.8618 0
M  V30 31 H 2.375 -0.2618 0.5312 0
M  V30 32 H 2.0085 -1.9468 0.0266 0
M  V30 33 H -1.6589 -0.9149 2.2604 0
M  V30 34 H 0.8134 -0.3392 -1.2271 0
M  V30 35 H -3.6263 -0.1537 0.9809 0
M  V30 36 H -1.1259 0.3976 -2.4877 0
M  V30 37 H 1.6663 -3.3086 2.6415 0
M  V30 38 H 3.3221 -4.1732 4.2621 0
M  V30 39 H 6.6082 -0.246 2.2379 0
M  V30 40 H 5.6156 -4.0301 5.269 0
M  V30 41 H 8.3295 -1.0404 3.8279 0
M  V30 42 H -5.6575 2.3502 -3.6401 0
M  V30 43 H 7.831 -2.9403 5.3502 0
M  V30 44 H -7.1205 -0.7415 -2.6756 0
M  V30 45 H -7.609 0.9319 -3.0807 0
M  V30 46 H -7.5432 0.4166 -1.3676 0
M  V30 47 H -3.2214 2.4351 -5.105 0
M  V30 48 H -2.1791 3.3002 -0.9988 0
M  V30 49 H -1.5456 4.1428 -5.7812 0
M  V30 50 H -0.5463 4.9572 -1.8701 0
M  V30 END ATOM
M  V30 BEGIN BOND
M  V30 1 1 1 2
M  V30 2 1 1 3
M  V30 3 2 2 4
M  V30 4 1 2 5
M  V30 5 1 3 6
M  V30 6 1 4 7
M  V30 7 2 5 8
M  V30 8 2 6 9
M  V30 9 1 6 10
M  V30 10 2 7 11
M  V30 11 1 9 12
M  V30 12 2 10 13
M  V30 13 1 11 14
M  V30 14 1 12 15
M  V30 15 2 12 16
M  V30 16 2 14 17
M  V30 17 1 14 18
M  V30 18 2 15 19
M  V30 19 1 16 20
M  V30 20 1 17 21
M  V30 21 1 18 22
M  V30 22 2 18 23
M  V30 23 1 19 24
M  V30 24 1 21 25
M  V30 25 2 22 26
M  V30 26 1 22 27
M  V30 27 1 26 28
M  V30 28 2 27 29
M  V30 29 2 28 30
M  V30 30 1 8 11
M  V30 31 1 13 15
M  V30 32 2 20 24
M  V30 33 1 21 23
M  V30 34 1 29 30
M  V30 35 1 3 31
M  V30 36 1 3 32
M  V30 37 1 4 33
M  V30 38 1 5 34
M  V30 39 1 7 35
M  V30 40 1 8 36
M  V30 41 1 10 37
M  V30 42 1 13 38
M  V30 43 1 16 39
M  V30 44 1 19 40
M  V30 45 1 20 41
M  V30 46 1 23 42
M  V30 47 1 24 43
M  V30 48 1 25 44
M  V30 49 1 25 45
M  V30 50 1 25 46
M  V30 51 1 26 47
M  V30 52 1 27 48
M  V30 53 1 28 49
M  V30 54 1 29 50
M  V30 END BOND
M  V30 END CTAB
M  END
>  <level_0>
501

>  <index>
501

>  <NO.>
502

>  <Name>
pf-2545920

>  <SMILES>
Cn1cc(-c2ccncc2)c(-c2ccc(OCc3ccc4ccccc4n3)cc2)n1

>  <logBB>
-0.06

>  <Class>
1

>  <MW>
392.16

>  <nHBAcc>
4

>  <nHBDon>
0

>  <SLogP>
5.28

>  <TopoPSA>
52.83

>  <MMFF94 Energy>
99.613

$$$$
CN1C(=O)C2C(N=CN2C)N(C)C1=O
Actelion Java MolfileCreator 2.0

  0  0  0  0  0  0              0 V3000
M  V30 BEGIN CTAB
M  V30 COUNTS 26 27 0 0 0
M  V30 BEGIN ATOM
M  V30 1 O -1.1881 -2.2188 -1.9808 0
M  V30 2 C -0.6752 -1.4487 -1.1671 0
M  V30 3 N -1.437 -0.7891 -0.213 0
M  V30 4 N 0.6818 -1.2473 -1.1192 0
M  V30 5 C -0.9451 -0.1577 0.9169 0
M  V30 6 C -2.8775 -0.9477 -0.3089 0
M  V30 7 C 1.2848 -0.2369 -0.2972 0
M  V30 8 C 1.5387 -1.8822 -2.1067 0
M  V30 9 O -1.6782 0.1625 1.8625 0
M  V30 10 C 0.5444 0.1263 0.9952 0
M  V30 11 N 1.4654 1.033 -1.0715 0
M  V30 12 N 0.8028 1.5634 1.0383 0
M  V30 13 C 1.2111 1.9553 -0.1921 0
M  V30 14 C 0.3191 2.4077 2.0961 0
M  V30 15 H -3.1545 -1.8855 0.1833 0
M  V30 16 H -3.4 -0.1215 0.1827 0
M  V30 17 H -3.197 -0.9897 -1.3547 0
M  V30 18 H 2.2899 -0.589 -0.0254 0
M  V30 19 H 1.8412 -1.1355 -2.8467 0
M  V30 20 H 1.0301 -2.7002 -2.6237 0
M  V30 21 H 2.4253 -2.2846 -1.6079 0
M  V30 22 H 0.9624 -0.4004 1.8598 0
M  V30 23 H 1.2701 3.0385 -0.3853 0
M  V30 24 H 0.9647 3.2844 2.2113 0
M  V30 25 H 0.3104 1.8745 3.0521 0
M  V30 26 H -0.695 2.7578 1.8802 0
M  V30 END ATOM
M  V30 BEGIN BOND
M  V30 1 2 1 2
M  V30 2 1 2 3
M  V30 3 1 2 4
M  V30 4 1 3 5
M  V30 5 1 3 6
M  V30 6 1 4 7
M  V30 7 1 4 8
M  V30 8 2 5 9
M  V30 9 1 5 10
M  V30 10 1 7 11
M  V30 11 1 10 12
M  V30 12 2 11 13
M  V30 13 1 12 14
M  V30 14 1 7 10
M  V30 15 1 12 13
M  V30 16 1 6 15
M  V30 17 1 6 16
M  V30 18 1 6 17
M  V30 19 1 7 18
M  V30 20 1 8 19
M  V30 21 1 8 20
M  V30 22 1 8 21
M  V30 23 1 10 22
M  V30 24 1 13 23
M  V30 25 1 14 24
M  V30 26 1 14 25
M  V30 27 1 14 26
M  V30 END BOND
M  V30 END CTAB
M  END
>  <level_0>
502

>  <index>
502

>  <NO.>
503

>  <Name>
1,3,7-trimethylxanthine, tms

>  <SMILES>
CN1C(=O)C2C(N=CN2C)N(C)C1=O

>  <logBB>
-0.06

>  <Class>
1

>  <MW>
196.1

>  <nHBAcc>
4

>  <nHBDon>
0

>  <SLogP>
-0.82

>  <TopoPSA>
56.22

>  <MMFF94 Energy>
-61.292

$$$$
CCNCc1ccc(C(=O)Nc2cc(C)n(Cc3cc(Cl)ccc3OCC(C)C)n2)cc1
Actelion Java MolfileCreator 2.0

  0  0  0  0  0  0              0 V3000
M  V30 BEGIN CTAB
M  V30 COUNTS 63 65 0 0 0
M  V30 BEGIN ATOM
M  V30 1 Cl -4.6808 -6.6693 -4.204 0
M  V30 2 C -3.4938 -5.8665 -3.2534 0
M  V30 3 C -3.1115 -4.5667 -3.5754 0
M  V30 4 C -2.9205 -6.5162 -2.1672 0
M  V30 5 C -2.1489 -3.8915 -2.8 0
M  V30 6 C -1.952 -5.8645 -1.3988 0
M  V30 7 C -1.556 -4.5585 -1.7101 0
M  V30 8 C -1.7505 -2.4837 -3.1871 0
M  V30 9 O -0.6092 -3.8515 -1.0216 0
M  V30 10 N -2.0812 -1.4676 -2.1884 0
M  V30 11 C 0.1285 -4.5302 -0.0054 0
M  V30 12 N -1.0995 -0.634 -1.7717 0
M  V30 13 C -3.3164 -1.1218 -1.6908 0
M  V30 14 C 1.1726 -3.5845 0.6108 0
M  V30 15 C -1.6994 0.1848 -0.908 0
M  V30 16 C -3.0799 -0.0719 -0.8265 0
M  V30 17 C -4.5895 -1.7933 -2.0411 0
M  V30 18 C 2.1163 -3.0199 -0.4517 0
M  V30 19 C 0.5034 -2.4439 1.3786 0
M  V30 20 N -0.9328 1.1138 -0.2513 0
M  V30 21 C -1.3958 2.0357 0.6559 0
M  V30 22 O -2.5672 2.2271 0.9649 0
M  V30 23 C -0.343 2.8864 1.2808 0
M  V30 24 C -0.6728 4.199 1.6391 0
M  V30 25 C 0.9448 2.4016 1.5394 0
M  V30 26 C 0.2836 5.0312 2.2266 0
M  V30 27 C 1.8985 3.2362 2.1286 0
M  V30 28 C 1.5789 4.5579 2.4763 0
M  V30 29 C 2.6195 5.4509 3.112 0
M  V30 30 N 3.6949 5.747 2.1666 0
M  V30 31 C 4.6878 6.6385 2.7602 0
M  V30 32 C 5.783 6.9351 1.7476 0
M  V30 33 H -3.569 -4.0745 -4.4311 0
M  V30 34 H -3.2181 -7.5298 -1.9116 0
M  V30 35 H -1.5269 -6.4064 -0.56 0
M  V30 36 H -2.245 -2.1662 -4.1129 0
M  V30 37 H -0.6699 -2.4471 -3.3718 0
M  V30 38 H -0.549 -4.8747 0.7853 0
M  V30 39 H 0.6466 -5.3937 -0.4409 0
M  V30 40 H 1.7693 -4.1652 1.3255 0
M  V30 41 H -3.816 0.4443 -0.2262 0
M  V30 42 H -5.4452 -1.1976 -1.7055 0
M  V30 43 H -4.6576 -2.7719 -1.5569 0
M  V30 44 H -4.6854 -1.9216 -3.1233 0
M  V30 45 H 1.5866 -2.3838 -1.1688 0
M  V30 46 H 2.6016 -3.8286 -1.008 0
M  V30 47 H 2.9027 -2.4155 0.013 0
M  V30 48 H -0.1069 -1.8193 0.7216 0
M  V30 49 H -0.145 -2.8366 2.1688 0
M  V30 50 H 1.2539 -1.8015 1.8517 0
M  V30 51 H 0.0369 1.0797 -0.526 0
M  V30 52 H -1.677 4.5777 1.4575 0
M  V30 53 H 1.2192 1.3748 1.3144 0
M  V30 54 H 0.0069 6.0497 2.4901 0
M  V30 55 H 2.901 2.8563 2.3194 0
M  V30 56 H 3.0148 4.942 4.0001 0
M  V30 57 H 2.1482 6.3802 3.4556 0
M  V30 58 H 3.2921 6.1817 1.3369 0
M  V30 59 H 5.1374 6.1709 3.6435 0
M  V30 60 H 4.2235 7.5813 3.072 0
M  V30 61 H 6.2862 6.0163 1.4279 0
M  V30 62 H 5.3789 7.4324 0.8593 0
M  V30 63 H 6.5361 7.5954 2.1896 0
M  V30 END ATOM
M  V30 BEGIN BOND
M  V30 1 1 1 2
M  V30 2 2 2 3
M  V30 3 1 2 4
M  V30 4 1 3 5
M  V30 5 2 4 6
M  V30 6 2 5 7
M  V30 7 1 5 8
M  V30 8 1 7 9
M  V30 9 1 8 10
M  V30 10 1 9 11
M  V30 11 1 10 12
M  V30 12 1 10 13
M  V30 13 1 11 14
M  V30 14 2 12 15
M  V30 15 2 13 16
M  V30 16 1 13 17
M  V30 17 1 14 18
M  V30 18 1 14 19
M  V30 19 1 15 20
M  V30 20 1 20 21
M  V30 21 2 21 22
M  V30 22 1 21 23
M  V30 23 2 23 24
M  V30 24 1 23 25
M  V30 25 1 24 26
M  V30 26 2 25 27
M  V30 27 2 26 28
M  V30 28 1 28 29
M  V30 29 1 29 30
M  V30 30 1 30 31
M  V30 31 1 31 32
M  V30 32 1 6 7
M  V30 33 1 15 16
M  V30 34 1 27 28
M  V30 35 1 3 33
M  V30 36 1 4 34
M  V30 37 1 6 35
M  V30 38 1 8 36
M  V30 39 1 8 37
M  V30 40 1 11 38
M  V30 41 1 11 39
M  V30 42 1 14 40
M  V30 43 1 16 41
M  V30 44 1 17 42
M  V30 45 1 17 43
M  V30 46 1 17 44
M  V30 47 1 18 45
M  V30 48 1 18 46
M  V30 49 1 18 47
M  V30 50 1 19 48
M  V30 51 1 19 49
M  V30 52 1 19 50
M  V30 53 1 20 51
M  V30 54 1 24 52
M  V30 55 1 25 53
M  V30 56 1 26 54
M  V30 57 1 27 55
M  V30 58 1 29 56
M  V30 59 1 29 57
M  V30 60 1 30 58
M  V30 61 1 31 59
M  V30 62 1 31 60
M  V30 63 1 32 61
M  V30 64 1 32 62
M  V30 65 1 32 63
M  V30 END BOND
M  V30 END CTAB
M  END
>  <level_0>
509

>  <index>
509

>  <NO.>
510

>  <Name>
compound-4h

>  <SMILES>
CCNCc1ccc(C(=O)Nc2cc(C)n(Cc3cc(Cl)ccc3OCC(C)C)n2)cc1

>  <logBB>
-0.05

>  <Class>
1

>  <MW>
454.21

>  <nHBAcc>
4

>  <nHBDon>
2

>  <SLogP>
5.29

>  <TopoPSA>
68.18

>  <MMFF94 Energy>
25.812

$$$$
Cc1cccc(C)c1Nc1ncc(-c2cccc(OCCN3CCCC3)c2)n2cncc12
Actelion Java MolfileCreator 2.0

  0  0  0  0  0  0              0 V3000
M  V30 BEGIN CTAB
M  V30 COUNTS 61 65 0 0 0
M  V30 BEGIN ATOM
M  V30 1 O -3.1834 -0.7155 -0.7155 0
M  V30 2 C -2.4174 -0.7693 0.416 0
M  V30 3 C -4.521 -1.2166 -0.6217 0
M  V30 4 C -1.1264 -0.2524 0.2691 0
M  V30 5 C -2.8133 -1.2802 1.6521 0
M  V30 6 C -5.1836 -1.0672 -1.9998 0
M  V30 7 C -0.2314 -0.2379 1.347 0
M  V30 8 C -1.9251 -1.2743 2.7312 0
M  V30 9 N -6.5538 -1.5911 -2.0476 0
M  V30 10 C 1.1188 0.3144 1.1812 0
M  V30 11 C -0.6389 -0.7561 2.5808 0
M  V30 12 C -7.0899 -1.5803 -3.4114 0
M  V30 13 C -7.5079 -0.7997 -1.267 0
M  V30 14 N 1.3717 1.6754 1.0673 0
M  V30 15 C 2.1886 -0.5038 1.1243 0
M  V30 16 C -8.5768 -1.8069 -3.1927 0
M  V30 17 C -8.8613 -1.2442 -1.805 0
M  V30 18 C 2.6552 2.1415 0.9081 0
M  V30 19 C 0.5533 2.7761 1.0884 0
M  V30 20 N 3.4929 -0.0764 0.964 0
M  V30 21 C 3.7612 1.2052 0.8563 0
M  V30 22 C 2.5435 3.5106 0.8432 0
M  V30 23 N 1.231 3.8972 0.9514 0
M  V30 24 N 5.0474 1.6687 0.6724 0
M  V30 25 C 6.2368 0.9118 0.6931 0
M  V30 26 C 6.6113 0.1242 1.8047 0
M  V30 27 C 7.0815 0.9437 -0.4443 0
M  V30 28 C 7.7888 -0.6416 1.7469 0
M  V30 29 C 5.8005 0.0598 3.0717 0
M  V30 30 C 8.2624 0.1855 -0.4627 0
M  V30 31 C 6.7269 1.7595 -1.6597 0
M  V30 32 C 8.6099 -0.608 0.6245 0
M  V30 33 H -5.076 -0.6368 0.1249 0
M  V30 34 H -4.5055 -2.2769 -0.3408 0
M  V30 35 H -0.823 0.1362 -0.7012 0
M  V30 36 H -3.8041 -1.6939 1.8104 0
M  V30 37 H -5.1446 -0.0149 -2.3124 0
M  V30 38 H -4.5631 -1.6127 -2.7235 0
M  V30 39 H -2.2381 -1.6762 3.6921 0
M  V30 40 H 0.0388 -0.7577 3.4321 0
M  V30 41 H -6.6509 -2.3662 -4.0339 0
M  V30 42 H -6.9289 -0.6119 -3.9027 0
M  V30 43 H -7.4288 -0.9927 -0.1927 0
M  V30 44 H -7.3782 0.2764 -1.4392 0
M  V30 45 H 2.0708 -1.583 1.1968 0
M  V30 46 H -8.8121 -2.8776 -3.213 0
M  V30 47 H -9.1795 -1.3161 -3.9635 0
M  V30 48 H -9.2997 -2.0229 -1.1702 0
M  V30 49 H -9.5666 -0.4077 -1.8459 0
M  V30 50 H -0.5194 2.7003 1.2076 0
M  V30 51 H 3.3288 4.2459 0.7285 0
M  V30 52 H 5.1681 2.6229 0.3686 0
M  V30 53 H 8.0746 -1.2664 2.5906 0
M  V30 54 H 5.0943 -0.7742 3.0306 0
M  V30 55 H 6.454 -0.0882 3.9391 0
M  V30 56 H 5.2579 0.9922 3.2548 0
M  V30 57 H 8.9125 0.198 -1.3344 0
M  V30 58 H 6.7123 2.8251 -1.4095 0
M  V30 59 H 5.7474 1.4605 -2.0469 0
M  V30 60 H 7.4544 1.6191 -2.4663 0
M  V30 61 H 9.5193 -1.2022 0.5978 0
M  V30 END ATOM
M  V30 BEGIN BOND
M  V30 1 1 1 2
M  V30 2 1 1 3
M  V30 3 2 2 4
M  V30 4 1 2 5
M  V30 5 1 3 6
M  V30 6 1 4 7
M  V30 7 2 5 8
M  V30 8 1 6 9
M  V30 9 1 7 10
M  V30 10 2 7 11
M  V30 11 1 9 12
M  V30 12 1 9 13
M  V30 13 1 10 14
M  V30 14 2 10 15
M  V30 15 1 12 16
M  V30 16 1 13 17
M  V30 17 1 14 18
M  V30 18 1 14 19
M  V30 19 1 15 20
M  V30 20 1 18 21
M  V30 21 2 18 22
M  V30 22 2 19 23
M  V30 23 1 21 24
M  V30 24 1 24 25
M  V30 25 2 25 26
M  V30 26 1 25 27
M  V30 27 1 26 28
M  V30 28 1 26 29
M  V30 29 2 27 30
M  V30 30 1 27 31
M  V30 31 2 28 32
M  V30 32 1 8 11
M  V30 33 1 16 17
M  V30 34 2 20 21
M  V30 35 1 22 23
M  V30 36 1 30 32
M  V30 37 1 3 33
M  V30 38 1 3 34
M  V30 39 1 4 35
M  V30 40 1 5 36
M  V30 41 1 6 37
M  V30 42 1 6 38
M  V30 43 1 8 39
M  V30 44 1 11 40
M  V30 45 1 12 41
M  V30 46 1 12 42
M  V30 47 1 13 43
M  V30 48 1 13 44
M  V30 49 1 15 45
M  V30 50 1 16 46
M  V30 51 1 16 47
M  V30 52 1 17 48
M  V30 53 1 17 49
M  V30 54 1 19 50
M  V30 55 1 22 51
M  V30 56 1 24 52
M  V30 57 1 28 53
M  V30 58 1 29 54
M  V30 59 1 29 55
M  V30 60 1 29 56
M  V30 61 1 30 57
M  V30 62 1 31 58
M  V30 63 1 31 59
M  V30 64 1 31 60
M  V30 65 1 32 61
M  V30 END BOND
M  V30 END CTAB
M  END
>  <level_0>
512

>  <index>
512

>  <NO.>
513

>  <Name>
chembl534947

>  <SMILES>
Cc1cccc(C)c1Nc1ncc(-c2cccc(OCCN3CCCC3)c2)n2cncc12

>  <logBB>
-0.05

>  <Class>
1

>  <MW>
427.24

>  <nHBAcc>
5

>  <nHBDon>
1

>  <SLogP>
5.23

>  <TopoPSA>
54.69

>  <MMFF94 Energy>
61.426

$$$$
CC1C=[N+](C2CC(N=[N+]=N)C(CO)O2)C(=O)NC1=O
Actelion Java MolfileCreator 2.0

  0  0  0  0  0  0              0 V3000
M  V30 BEGIN CTAB
M  V30 COUNTS 34 35 0 0 0
M  V30 BEGIN ATOM
M  V30 1 O 1.4327 -1.3531 1.1142 0
M  V30 2 C 0.6682 -0.7013 1.8024 0
M  V30 3 N -0.4835 0.0312 1.0454 0 CHG=1
M  V30 4 N 0.7295 -0.6304 3.1532 0
M  V30 5 C -1.3929 0.6138 1.7385 0
M  V30 6 C -0.3736 0.1226 -0.4266 0
M  V30 7 C -0.2095 -0.0384 3.9337 0
M  V30 8 C -1.4087 0.559 3.236 0
M  V30 9 O 0.8355 0.6719 -0.9533 0
M  V30 10 C -0.5997 -1.2142 -1.1154 0
M  V30 11 O -0.0845 -0.0326 5.1523 0
M  V30 12 C -1.6528 1.9726 3.7651 0
M  V30 13 C 1.1334 0.0117 -2.2105 0
M  V30 14 C -0.0355 -0.9408 -2.4988 0
M  V30 15 C 2.4719 -0.73 -2.0895 0
M  V30 16 N -1.0855 -0.248 -3.2706 0
M  V30 17 O 3.5196 0.1746 -1.7538 0
M  V30 18 N -0.9188 -0.2423 -4.502 0 CHG=1
M  V30 19 N -0.7112 -0.2423 -5.7164 0
M  V30 20 H 1.5115 -1.0758 3.6192 0
M  V30 21 H -2.2052 1.1429 1.2132 0
M  V30 22 H -1.1654 0.8126 -0.7482 0
M  V30 23 H -2.2735 -0.061 3.5068 0
M  V30 24 H -0.0344 -2.03 -0.6543 0
M  V30 25 H -1.6553 -1.5074 -1.1173 0
M  V30 26 H -0.8011 2.6266 3.5446 0
M  V30 27 H -1.799 1.9717 4.8507 0
M  V30 28 H -2.5425 2.4201 3.308 0
M  V30 29 H 1.23 0.8 -2.9657 0
M  V30 30 H 0.2646 -1.8623 -3.0112 0
M  V30 31 H 2.4349 -1.4819 -1.2967 0
M  V30 32 H 2.7315 -1.2322 -3.027 0
M  V30 33 H 3.6683 0.7659 -2.5128 0
M  V30 34 H -1.5684 -0.0279 -6.2377 0
M  V30 END ATOM
M  V30 BEGIN BOND
M  V30 1 2 1 2
M  V30 2 1 2 3
M  V30 3 1 2 4
M  V30 4 2 3 5
M  V30 5 1 3 6
M  V30 6 1 4 7
M  V30 7 1 5 8
M  V30 8 1 6 9
M  V30 9 1 6 10
M  V30 10 2 7 11
M  V30 11 1 8 12
M  V30 12 1 9 13
M  V30 13 1 10 14
M  V30 14 1 13 15
M  V30 15 1 14 16
M  V30 16 1 15 17
M  V30 17 2 16 18
M  V30 18 2 18 19
M  V30 19 1 7 8
M  V30 20 1 13 14
M  V30 21 1 4 20
M  V30 22 1 5 21
M  V30 23 1 6 22
M  V30 24 1 8 23
M  V30 25 1 10 24
M  V30 26 1 10 25
M  V30 27 1 12 26
M  V30 28 1 12 27
M  V30 29 1 12 28
M  V30 30 1 13 29
M  V30 31 1 14 30
M  V30 32 1 15 31
M  V30 33 1 15 32
M  V30 34 1 17 33
M  V30 35 1 19 34
M  V30 END BOND
M  V30 END CTAB
M  END
>  <level_0>
514

>  <index>
514

>  <NO.>
515

>  <Name>
s122

>  <SMILES>
CC1C=[N+](C2CC(N=[N+]=N)C(CO)O2)C(=O)NC1=O

>  <logBB>
-0.05

>  <Class>
1

>  <MW>
269.11

>  <nHBAcc>
6

>  <nHBDon>
3

>  <SLogP>
-1.02

>  <TopoPSA>
128.95

>  <MMFF94 Energy>
-92.066

$$$$
CC[C@@H](C(N)=O)N1CCCC1=O
Actelion Java MolfileCreator 2.0

  0  0  0  0  0  0              0 V3000
M  V30 BEGIN CTAB
M  V30 COUNTS 26 26 0 0 0
M  V30 BEGIN ATOM
M  V30 1 O 0.9359 -2.1067 -1.326 0
M  V30 2 C 1.2688 -0.9615 -1.0633 0
M  V30 3 N 0.6324 -0.1129 -0.1687 0
M  V30 4 C 2.3742 -0.1879 -1.7371 0
M  V30 5 C -0.6213 -0.4744 0.507 0 CFG=2
M  V30 6 C 1.1243 1.2397 -0.2781 0
M  V30 7 C 2.5113 1.0524 -0.8634 0
M  V30 8 C -1.7781 -0.1662 -0.4671 0
M  V30 9 C -0.7874 0.2242 1.8614 0
M  V30 10 O -2.5356 0.7938 -0.3679 0
M  V30 11 N -1.8846 -1.0349 -1.5192 0
M  V30 12 C -1.9084 -0.3851 2.6933 0
M  V30 13 H 3.2978 -0.7701 -1.771 0
M  V30 14 H 2.0532 0.0724 -2.7504 0
M  V30 15 H -0.6065 -1.5613 0.6609 0
M  V30 16 H 0.4712 1.7971 -0.9575 0
M  V30 17 H 1.1618 1.7327 0.6962 0
M  V30 18 H 3.2302 0.853 -0.0588 0
M  V30 19 H 2.8611 1.9281 -1.417 0
M  V30 20 H -0.9859 1.2944 1.7281 0
M  V30 21 H 0.1463 0.1433 2.4316 0
M  V30 22 H -2.6088 -0.8869 -2.2072 0
M  V30 23 H -1.204 -1.7774 -1.6626 0
M  V30 24 H -2.8774 -0.2865 2.195 0
M  V30 25 H -1.9757 0.1207 3.6618 0
M  V30 26 H -1.7241 -1.4479 2.8799 0
M  V30 END ATOM
M  V30 BEGIN BOND
M  V30 1 2 1 2
M  V30 2 1 2 3
M  V30 3 1 2 4
M  V30 4 1 3 5
M  V30 5 1 3 6
M  V30 6 1 4 7
M  V30 7 1 5 8
M  V30 8 1 5 9
M  V30 9 2 8 10
M  V30 10 1 8 11
M  V30 11 1 9 12
M  V30 12 1 6 7
M  V30 13 1 4 13
M  V30 14 1 4 14
M  V30 15 1 5 15
M  V30 16 1 6 16
M  V30 17 1 6 17
M  V30 18 1 7 18
M  V30 19 1 7 19
M  V30 20 1 9 20
M  V30 21 1 9 21
M  V30 22 1 11 22
M  V30 23 1 11 23
M  V30 24 1 12 24
M  V30 25 1 12 25
M  V30 26 1 12 26
M  V30 END BOND
M  V30 BEGIN COLLECTION
M  V30 MDLV30/STEABS ATOMS=(1 5)
M  V30 END COLLECTION
M  V30 END CTAB
M  END
>  <level_0>
515

>  <index>
515

>  <NO.>
516

>  <Name>
levetiracetam

>  <SMILES>
CC[C@@H](C(N)=O)N1CCCC1=O

>  <logBB>
-0.04

>  <Class>
1

>  <MW>
170.11

>  <nHBAcc>
2

>  <nHBDon>
1

>  <SLogP>
-0.13

>  <TopoPSA>
63.4

>  <MMFF94 Energy>
-14.059

$$$$
O
Actelion Java MolfileCreator 2.0

  0  0  0  0  0  0              0 V3000
M  V30 BEGIN CTAB
M  V30 COUNTS 3 2 0 0 0
M  V30 BEGIN ATOM
M  V30 1 O 0.5626 0.0 -0.1875 0
M  V30 2 H -0.1076 0.8325 0.8649 0
M  V30 3 H -0.5237 -0.9129 -0.6734 0
M  V30 END ATOM
M  V30 BEGIN BOND
M  V30 1 1 1 2
M  V30 2 1 1 3
M  V30 END BOND
M  V30 END CTAB
M  END
>  <level_0>
520

>  <index>
520

>  <NO.>
521

>  <Name>
water

>  <SMILES>
O

>  <logBB>
-0.04

>  <Class>
1

>  <MW>
18.01

>  <nHBAcc>
0

>  <nHBDon>
0

>  <SLogP>
-0.82

>  <TopoPSA>
31.5

>  <MMFF94 Energy>
7.5222e-17

$$$$
CN1CCCC12CCN(Cc1ccc(C(=O)Nc3cc(-c4ccccc4)ccc3N)cc1)CC2
Actelion Java MolfileCreator 2.0

  0  0  0  0  0  0              0 V3000
M  V30 BEGIN CTAB
M  V30 COUNTS 68 72 0 0 0
M  V30 BEGIN ATOM
M  V30 1 O 0.5567 2.069 -2.786 0
M  V30 2 C 1.3067 1.5875 -1.9438 0
M  V30 3 N 2.6601 1.3606 -2.0958 0
M  V30 4 C 0.7404 1.2136 -0.6156 0
M  V30 5 C 3.4336 1.6502 -3.2419 0
M  V30 6 C 1.2353 0.1394 0.1328 0
M  V30 7 C -0.3409 1.9558 -0.1249 0
M  V30 8 C 4.6005 0.8897 -3.4507 0
M  V30 9 C 3.1209 2.7083 -4.1039 0
M  V30 10 C 0.6669 -0.1686 1.372 0
M  V30 11 C -0.9084 1.6445 1.1133 0
M  V30 12 N 4.9518 -0.1555 -2.5909 0
M  V30 13 C 5.4679 1.259 -4.4801 0
M  V30 14 C 3.9638 3.0509 -5.1752 0
M  V30 15 C -0.4114 0.5771 1.873 0
M  V30 16 C 5.1458 2.3135 -5.3408 0
M  V30 17 C 3.6232 4.161 -6.084 0
M  V30 18 C -1.0163 0.2445 3.2226 0
M  V30 19 C 2.3476 4.2528 -6.6671 0
M  V30 20 C 4.5593 5.1621 -6.3953 0
M  V30 21 N -1.4183 -1.1677 3.3521 0
M  V30 22 C 2.0208 5.3021 -7.5306 0
M  V30 23 C 4.2342 6.2127 -7.2583 0
M  V30 24 C -1.7089 -1.4838 4.7555 0
M  V30 25 C -2.5704 -1.4832 2.4967 0
M  V30 26 C 2.9649 6.2815 -7.8262 0
M  V30 27 C -2.0936 -2.9544 4.9424 0
M  V30 28 C -2.9415 -2.9651 2.5977 0
M  V30 29 C -3.2775 -3.3907 4.0417 0
M  V30 30 N -3.496 -4.8542 4.2403 0
M  V30 31 C -4.6117 -2.786 4.5134 0
M  V30 32 C -4.2884 -4.9854 5.4753 0
M  V30 33 C -4.1706 -5.5303 3.1311 0
M  V30 34 C -5.0938 -3.7036 5.6266 0
M  V30 35 H 3.1948 0.9813 -1.3261 0
M  V30 36 H 2.0373 -0.4896 -0.239 0
M  V30 37 H -0.7436 2.7821 -0.7081 0
M  V30 38 H 2.2303 3.3068 -3.9265 0
M  V30 39 H 1.0503 -1.0113 1.9455 0
M  V30 40 H -1.745 2.2382 1.4749 0
M  V30 41 H 5.7766 -0.6969 -2.8191 0
M  V30 42 H 4.1912 -0.6668 -2.1623 0
M  V30 43 H 6.3945 0.7153 -4.6407 0
M  V30 44 H 5.8268 2.5492 -6.1559 0
M  V30 45 H -1.8667 0.9058 3.4359 0
M  V30 46 H -0.245 0.4826 3.9677 0
M  V30 47 H 1.5947 3.4951 -6.4551 0
M  V30 48 H 5.5524 5.1384 -5.9519 0
M  V30 49 H 1.0279 5.351 -7.9697 0
M  V30 50 H 4.9722 6.9784 -7.4818 0
M  V30 51 H -0.8153 -1.2961 5.3642 0
M  V30 52 H -2.4994 -0.8327 5.1485 0
M  V30 53 H -3.4354 -0.8589 2.7546 0
M  V30 54 H -2.3325 -1.28 1.4462 0
M  V30 55 H 2.7105 7.0983 -8.4961 0
M  V30 56 H -2.3134 -3.1173 6.0046 0
M  V30 57 H -1.2161 -3.5752 4.7119 0
M  V30 58 H -2.1009 -3.5643 2.2213 0
M  V30 59 H -3.7873 -3.1518 1.9247 0
M  V30 60 H -5.3519 -2.794 3.703 0
M  V30 61 H -4.5343 -1.7528 4.8635 0
M  V30 62 H -4.9307 -5.8736 5.4923 0
M  V30 63 H -3.6039 -5.0926 6.3255 0
M  V30 64 H -3.5515 -5.5189 2.2285 0
M  V30 65 H -5.1471 -5.0935 2.8955 0
M  V30 66 H -4.3229 -6.5893 3.37 0
M  V30 67 H -6.1692 -3.8881 5.5331 0
M  V30 68 H -4.9129 -3.2514 6.6081 0
M  V30 END ATOM
M  V30 BEGIN BOND
M  V30 1 2 1 2
M  V30 2 1 2 3
M  V30 3 1 2 4
M  V30 4 1 3 5
M  V30 5 2 4 6
M  V30 6 1 4 7
M  V30 7 2 5 8
M  V30 8 1 5 9
M  V30 9 1 6 10
M  V30 10 2 7 11
M  V30 11 1 8 12
M  V30 12 1 8 13
M  V30 13 2 9 14
M  V30 14 2 10 15
M  V30 15 2 13 16
M  V30 16 1 14 17
M  V30 17 1 15 18
M  V30 18 2 17 19
M  V30 19 1 17 20
M  V30 20 1 18 21
M  V30 21 1 19 22
M  V30 22 2 20 23
M  V30 23 1 21 24
M  V30 24 1 21 25
M  V30 25 2 22 26
M  V30 26 1 24 27
M  V30 27 1 25 28
M  V30 28 1 27 29
M  V30 29 1 29 30
M  V30 30 1 29 31
M  V30 31 1 30 32
M  V30 32 1 30 33
M  V30 33 1 31 34
M  V30 34 1 11 15
M  V30 35 1 14 16
M  V30 36 1 23 26
M  V30 37 1 28 29
M  V30 38 1 32 34
M  V30 39 1 3 35
M  V30 40 1 6 36
M  V30 41 1 7 37
M  V30 42 1 9 38
M  V30 43 1 10 39
M  V30 44 1 11 40
M  V30 45 1 12 41
M  V30 46 1 12 42
M  V30 47 1 13 43
M  V30 48 1 16 44
M  V30 49 1 18 45
M  V30 50 1 18 46
M  V30 51 1 19 47
M  V30 52 1 20 48
M  V30 53 1 22 49
M  V30 54 1 23 50
M  V30 55 1 24 51
M  V30 56 1 24 52
M  V30 57 1 25 53
M  V30 58 1 25 54
M  V30 59 1 26 55
M  V30 60 1 27 56
M  V30 61 1 27 57
M  V30 62 1 28 58
M  V30 63 1 28 59
M  V30 64 1 31 60
M  V30 65 1 31 61
M  V30 66 1 32 62
M  V30 67 1 32 63
M  V30 68 1 33 64
M  V30 69 1 33 65
M  V30 70 1 33 66
M  V30 71 1 34 67
M  V30 72 1 34 68
M  V30 END BOND
M  V30 END CTAB
M  END
>  <level_0>
523

>  <index>
523

>  <NO.>
524

>  <Name>


>  <SMILES>
CN1CCCC12CCN(Cc1ccc(C(=O)Nc3cc(-c4ccccc4)ccc3N)cc1)CC2

>  <logBB>
-0.03

>  <Class>
1

>  <MW>
454.27

>  <nHBAcc>
4

>  <nHBDon>
2

>  <SLogP>
5.25

>  <TopoPSA>
61.6

>  <MMFF94 Energy>
85.402

$$$$
CC(=O)N1CCN(C2CCN(C(=O)N(C)C(C)c3cc(C(F)(F)F)cc(C(F)(F)F)c3)C(c3ccc(F)cc3C)C2)CC1
Actelion Java MolfileCreator 2.0

  0  0  0  0  0  0              0 V3000
M  V30 BEGIN CTAB
M  V30 COUNTS 78 81 0 0 0
M  V30 BEGIN ATOM
M  V30 1 F -0.8864 -7.675 2.0154 0
M  V30 2 C -0.5528 -6.379 1.9654 0
M  V30 3 C 0.7776 -6.0178 1.8186 0
M  V30 4 C -1.537 -5.4136 2.0748 0
M  V30 5 C 1.1489 -4.6612 1.773 0
M  V30 6 C -1.1877 -4.0623 2.0148 0
M  V30 7 C 0.149 -3.6514 1.8299 0
M  V30 8 C 2.6173 -4.3495 1.6428 0
M  V30 9 C 0.5287 -2.1638 1.7464 0
M  V30 10 N 1.2271 -1.8313 0.489 0
M  V30 11 C -0.589 -1.1085 1.9521 0
M  V30 12 C 2.3346 -0.991 0.5742 0
M  V30 13 C 0.3739 -1.8718 -0.6942 0
M  V30 14 C -1.5023 -0.8985 0.7121 0
M  V30 15 O 2.6593 -0.4582 1.6367 0
M  V30 16 N 3.0248 -0.7223 -0.6001 0
M  V30 17 C -0.6812 -0.7763 -0.5879 0
M  V30 18 N -2.4904 0.195 0.9341 0
M  V30 19 C 3.6943 0.5903 -0.6959 0
M  V30 20 C 3.3978 -1.7907 -1.5174 0
M  V30 21 C -1.8736 1.5298 1.1622 0
M  V30 22 C -3.5045 0.2596 -0.15 0
M  V30 23 C 2.6409 1.6943 -0.834 0
M  V30 24 C 4.7461 0.7276 -1.8059 0
M  V30 25 C -2.908 2.661 1.3289 0
M  V30 26 C -4.5291 1.4013 0.0342 0
M  V30 27 C 1.8282 1.7962 -1.9753 0
M  V30 28 C 2.4281 2.5939 0.2232 0
M  V30 29 N -3.8139 2.6667 0.1868 0
M  V30 30 C 0.8244 2.7758 -2.0707 0
M  V30 31 C 1.4406 3.5895 0.1483 0
M  V30 32 C -3.6592 3.6248 -0.7986 0
M  V30 33 C 0.6431 3.6692 -1.0036 0
M  V30 34 C -0.0971 2.8257 -3.2661 0
M  V30 35 C 1.1899 4.5156 1.3152 0
M  V30 36 O -2.8011 4.5066 -0.74 0
M  V30 37 C -4.5852 3.5465 -1.9842 0
M  V30 38 F -1.3032 2.2424 -3.0135 0
M  V30 39 F -0.3661 4.0909 -3.6869 0
M  V30 40 F 0.4041 2.1729 -4.3537 0
M  V30 41 F 2.2674 4.6471 2.1387 0
M  V30 42 F 0.8639 5.7802 0.931 0
M  V30 43 F 0.1669 4.0829 2.1036 0
M  V30 44 H 1.5239 -6.8047 1.7532 0
M  V30 45 H -2.5711 -5.7134 2.2115 0
M  V30 46 H -1.9936 -3.3436 2.1307 0
M  V30 47 H 2.8673 -4.1378 0.6008 0
M  V30 48 H 2.9066 -3.5062 2.2758 0
M  V30 49 H 3.2289 -5.1988 1.9678 0
M  V30 50 H 1.2146 -2.0164 2.5917 0
M  V30 51 H -1.1915 -1.3406 2.8386 0
M  V30 52 H -0.0737 -0.1669 2.1763 0
M  V30 53 H 0.9316 -1.7031 -1.6153 0
M  V30 54 H -0.0883 -2.8612 -0.7725 0
M  V30 55 H -2.098 -1.8124 0.6055 0
M  V30 56 H -0.1791 0.1933 -0.6257 0
M  V30 57 H -1.3276 -0.8411 -1.4691 0
M  V30 58 H 4.2323 0.7434 0.249 0
M  V30 59 H 3.1464 -1.4969 -2.5397 0
M  V30 60 H 4.4729 -1.9723 -1.4321 0
M  V30 61 H 2.8993 -2.7317 -1.2753 0
M  V30 62 H -1.2238 1.7921 0.3228 0
M  V30 63 H -1.2663 1.5225 2.0715 0
M  V30 64 H -4.0492 -0.6902 -0.1973 0
M  V30 65 H -3.0189 0.4166 -1.1198 0
M  V30 66 H 4.3302 0.5446 -2.8022 0
M  V30 67 H 5.1757 1.7361 -1.8097 0
M  V30 68 H 5.5703 0.0233 -1.6526 0
M  V30 69 H -3.506 2.5031 2.2344 0
M  V30 70 H -2.3966 3.6231 1.4332 0
M  V30 71 H -5.1268 1.2384 0.9387 0
M  V30 72 H -5.2123 1.4218 -0.8174 0
M  V30 73 H 1.9554 1.0823 -2.7886 0
M  V30 74 H 3.0237 2.5011 1.1332 0
M  V30 75 H -0.1485 4.4207 -1.0586 0
M  V30 76 H -4.3428 2.6689 -2.589 0
M  V30 77 H -5.6259 3.5043 -1.6523 0
M  V30 78 H -4.4608 4.4406 -2.6024 0
M  V30 END ATOM
M  V30 BEGIN BOND
M  V30 1 1 1 2
M  V30 2 2 2 3
M  V30 3 1 2 4
M  V30 4 1 3 5
M  V30 5 2 4 6
M  V30 6 2 5 7
M  V30 7 1 5 8
M  V30 8 1 7 9
M  V30 9 1 9 10
M  V30 10 1 9 11
M  V30 11 1 10 12
M  V30 12 1 10 13
M  V30 13 1 11 14
M  V30 14 2 12 15
M  V30 15 1 12 16
M  V30 16 1 13 17
M  V30 17 1 14 18
M  V30 18 1 16 19
M  V30 19 1 16 20
M  V30 20 1 18 21
M  V30 21 1 18 22
M  V30 22 1 19 23
M  V30 23 1 19 24
M  V30 24 1 21 25
M  V30 25 1 22 26
M  V30 26 2 23 27
M  V30 27 1 23 28
M  V30 28 1 25 29
M  V30 29 1 27 30
M  V30 30 2 28 31
M  V30 31 1 29 32
M  V30 32 2 30 33
M  V30 33 1 30 34
M  V30 34 1 31 35
M  V30 35 2 32 36
M  V30 36 1 32 37
M  V30 37 1 34 38
M  V30 38 1 34 39
M  V30 39 1 34 40
M  V30 40 1 35 41
M  V30 41 1 35 42
M  V30 42 1 35 43
M  V30 43 1 6 7
M  V30 44 1 14 17
M  V30 45 1 26 29
M  V30 46 1 31 33
M  V30 47 1 3 44
M  V30 48 1 4 45
M  V30 49 1 6 46
M  V30 50 1 8 47
M  V30 51 1 8 48
M  V30 52 1 8 49
M  V30 53 1 9 50
M  V30 54 1 11 51
M  V30 55 1 11 52
M  V30 56 1 13 53
M  V30 57 1 13 54
M  V30 58 1 14 55
M  V30 59 1 17 56
M  V30 60 1 17 57
M  V30 61 1 19 58
M  V30 62 1 20 59
M  V30 63 1 20 60
M  V30 64 1 20 61
M  V30 65 1 21 62
M  V30 66 1 21 63
M  V30 67 1 22 64
M  V30 68 1 22 65
M  V30 69 1 24 66
M  V30 70 1 24 67
M  V30 71 1 24 68
M  V30 72 1 25 69
M  V30 73 1 25 70
M  V30 74 1 26 71
M  V30 75 1 26 72
M  V30 76 1 27 73
M  V30 77 1 28 74
M  V30 78 1 33 75
M  V30 79 1 37 76
M  V30 80 1 37 77
M  V30 81 1 37 78
M  V30 END BOND
M  V30 END CTAB
M  END
>  <level_0>
531

>  <index>
531

>  <NO.>
532

>  <Name>
414910-27-3

>  <SMILES>
CC(=O)N1CCN(C2CCN(C(=O)N(C)C(C)c3cc(C(F)(F)F)cc(C(F)(F)F)c3)C(c3ccc(F)cc3C)C2)CC1

>  <logBB>
-0.01

>  <Class>
1

>  <MW>
616.26

>  <nHBAcc>
3

>  <nHBDon>
0

>  <SLogP>
6.65

>  <TopoPSA>
47.1

>  <MMFF94 Energy>
79.807

$$$$
CCCN1CN(c2ccc(Br)cc2)C2(CCN(CCCC(=O)c3ccc(F)cc3)CC2)C1=O
Actelion Java MolfileCreator 2.0

  0  0  0  0  0  0              0 V3000
M  V30 BEGIN CTAB
M  V30 COUNTS 64 67 0 0 0
M  V30 BEGIN ATOM
M  V30 1 Br -7.0115 3.9444 -0.804 0
M  V30 2 C -5.1399 3.7702 -0.6288 0
M  V30 3 C -4.5707 2.5194 -0.4481 0
M  V30 4 C -4.3279 4.8924 -0.6801 0
M  V30 5 C -3.1791 2.3988 -0.3185 0
M  V30 6 C -2.9383 4.7524 -0.5488 0
M  V30 7 C -2.3147 3.5025 -0.3633 0
M  V30 8 N -0.9453 3.3819 -0.2347 0
M  V30 9 C -0.1456 2.127 -0.0462 0
M  V30 10 C -0.0807 4.5506 -0.295 0
M  V30 11 C 1.3013 2.6769 0.0191 0
M  V30 12 C -0.41 1.4913 1.3325 0
M  V30 13 C -0.1981 1.23 -1.2981 0
M  V30 14 N 1.2414 4.0479 -0.1145 0
M  V30 15 O 2.3295 2.0318 0.1696 0
M  V30 16 C -0.7575 0.0079 1.3125 0
M  V30 17 C -0.5707 -0.2279 -1.0487 0
M  V30 18 C 2.402 4.9151 -0.0978 0
M  V30 19 N -0.0685 -0.7124 0.2383 0
M  V30 20 C 2.9546 5.163 1.3067 0
M  V30 21 C -0.2631 -2.164 0.4043 0
M  V30 22 C 2.005 5.9445 2.2015 0
M  V30 23 C 0.6042 -3.0082 -0.5389 0
M  V30 24 C 0.5375 -4.4911 -0.163 0
M  V30 25 C 1.3288 -5.3638 -1.1233 0
M  V30 26 O 1.803 -4.9285 -2.1703 0
M  V30 27 C 1.519 -6.8094 -0.7877 0
M  V30 28 C 2.3537 -7.5807 -1.6132 0
M  V30 29 C 0.8907 -7.4144 0.3105 0
M  V30 30 C 2.5614 -8.9349 -1.3423 0
M  V30 31 C 1.1013 -8.7707 0.5781 0
M  V30 32 C 1.9335 -9.5169 -0.2487 0
M  V30 33 F 2.1302 -10.8153 0.0129 0
M  V30 34 H -5.19 1.6275 -0.4057 0
M  V30 35 H -4.7548 5.8817 -0.8213 0
M  V30 36 H -2.7929 1.3983 -0.1803 0
M  V30 37 H -2.3559 5.6683 -0.5981 0
M  V30 38 H -0.1327 5.0415 -1.2732 0
M  V30 39 H -0.3025 5.2632 0.5054 0
M  V30 40 H 0.4714 1.6085 1.9789 0
M  V30 41 H -1.208 2.0219 1.8678 0
M  V30 42 H -0.8903 1.6351 -2.0475 0
M  V30 43 H 0.7778 1.2318 -1.8039 0
M  V30 44 H -0.4751 -0.4056 2.2897 0
M  V30 45 H -1.8445 -0.1242 1.2354 0
M  V30 46 H -1.6586 -0.3566 -1.1153 0
M  V30 47 H -0.1508 -0.8042 -1.8801 0
M  V30 48 H 3.1839 4.4272 -0.6918 0
M  V30 49 H 2.1506 5.8591 -0.5942 0
M  V30 50 H 3.201 4.2115 1.7919 0
M  V30 51 H 3.8906 5.7269 1.2163 0
M  V30 52 H -1.3203 -2.4326 0.2783 0
M  V30 53 H 0.0132 -2.4371 1.4314 0
M  V30 54 H 2.4954 6.1856 3.1501 0
M  V30 55 H 1.7002 6.8836 1.7289 0
M  V30 56 H 1.1076 5.3628 2.4324 0
M  V30 57 H 1.6471 -2.6693 -0.4957 0
M  V30 58 H 0.2702 -2.8877 -1.5755 0
M  V30 59 H -0.5059 -4.8257 -0.1778 0
M  V30 60 H 0.9447 -4.6175 0.8463 0
M  V30 61 H 2.8475 -7.1277 -2.4718 0
M  V30 62 H 0.2309 -6.8584 0.9699 0
M  V30 63 H 3.2066 -9.5341 -1.9771 0
M  V30 64 H 0.6206 -9.2509 1.4254 0
M  V30 END ATOM
M  V30 BEGIN BOND
M  V30 1 1 1 2
M  V30 2 2 2 3
M  V30 3 1 2 4
M  V30 4 1 3 5
M  V30 5 2 4 6
M  V30 6 2 5 7
M  V30 7 1 7 8
M  V30 8 1 8 9
M  V30 9 1 8 10
M  V30 10 1 9 11
M  V30 11 1 9 12
M  V30 12 1 9 13
M  V30 13 1 10 14
M  V30 14 2 11 15
M  V30 15 1 12 16
M  V30 16 1 13 17
M  V30 17 1 14 18
M  V30 18 1 16 19
M  V30 19 1 18 20
M  V30 20 1 19 21
M  V30 21 1 20 22
M  V30 22 1 21 23
M  V30 23 1 23 24
M  V30 24 1 24 25
M  V30 25 2 25 26
M  V30 26 1 25 27
M  V30 27 2 27 28
M  V30 28 1 27 29
M  V30 29 1 28 30
M  V30 30 2 29 31
M  V30 31 2 30 32
M  V30 32 1 32 33
M  V30 33 1 6 7
M  V30 34 1 11 14
M  V30 35 1 17 19
M  V30 36 1 31 32
M  V30 37 1 3 34
M  V30 38 1 4 35
M  V30 39 1 5 36
M  V30 40 1 6 37
M  V30 41 1 10 38
M  V30 42 1 10 39
M  V30 43 1 12 40
M  V30 44 1 12 41
M  V30 45 1 13 42
M  V30 46 1 13 43
M  V30 47 1 16 44
M  V30 48 1 16 45
M  V30 49 1 17 46
M  V30 50 1 17 47
M  V30 51 1 18 48
M  V30 52 1 18 49
M  V30 53 1 20 50
M  V30 54 1 20 51
M  V30 55 1 21 52
M  V30 56 1 21 53
M  V30 57 1 22 54
M  V30 58 1 22 55
M  V30 59 1 22 56
M  V30 60 1 23 57
M  V30 61 1 23 58
M  V30 62 1 24 59
M  V30 63 1 24 60
M  V30 64 1 28 61
M  V30 65 1 29 62
M  V30 66 1 30 63
M  V30 67 1 31 64
M  V30 END BOND
M  V30 END CTAB
M  END
>  <level_0>
534

>  <index>
534

>  <NO.>
535

>  <Name>
bpsp

>  <SMILES>
CCCN1CN(c2ccc(Br)cc2)C2(CCN(CCCC(=O)c3ccc(F)cc3)CC2)C1=O

>  <logBB>
-0.01

>  <Class>
1

>  <MW>
515.16

>  <nHBAcc>
4

>  <nHBDon>
0

>  <SLogP>
5.1

>  <TopoPSA>
43.86

>  <MMFF94 Energy>
44.214

$$$$
CCCCCc1cc(O)c2c(c1)OC(C)(C)[C@@H]1CCC(C)=C[C@@H]21
Actelion Java MolfileCreator 2.0

  0  0  0  0  0  0              0 V3000
M  V30 BEGIN CTAB
M  V30 COUNTS 53 55 0 0 0
M  V30 BEGIN ATOM
M  V30 1 O -1.8193 0.7116 0.7116 0
M  V30 2 C -0.6391 0.4687 0.0605 0
M  V30 3 C -2.775 -0.3669 0.764 0
M  V30 4 C -0.4018 -0.6322 -0.7751 0
M  V30 5 C 0.3593 1.416 0.3173 0
M  V30 6 C -2.8835 -1.0141 -0.6289 0 CFG=1
M  V30 7 C -2.391 -1.3312 1.8979 0
M  V30 8 C -4.0982 0.317 1.1535 0
M  V30 9 C 0.9174 -0.8177 -1.22 0
M  V30 10 C -1.5224 -1.6175 -1.0555 0 CFG=1
M  V30 11 C 1.6452 1.2606 -0.204 0
M  V30 12 C -3.973 -2.0846 -0.7908 0
M  V30 13 O 1.2528 -1.9627 -1.8909 0
M  V30 14 C 1.9242 0.119 -0.9578 0
M  V30 15 C -1.6567 -2.1164 -2.4842 0
M  V30 16 C 2.7217 2.2718 0.0956 0
M  V30 17 C -4.1231 -2.479 -2.2658 0
M  V30 18 C -2.8235 -2.5106 -3.0312 0
M  V30 19 C 3.4809 1.9277 1.3789 0
M  V30 20 C -2.9113 -3.0006 -4.4479 0
M  V30 21 C 4.5703 2.9605 1.6725 0
M  V30 22 C 5.3299 2.6184 2.954 0
M  V30 23 C 6.4137 3.6429 3.2493 0
M  V30 24 H 0.1253 2.269 0.951 0
M  V30 25 H -3.1198 -0.1942 -1.3288 0
M  V30 26 H -3.1241 -2.1357 2.011 0
M  V30 27 H -2.3251 -0.7937 2.8516 0
M  V30 28 H -1.4059 -1.7821 1.7458 0
M  V30 29 H -3.9683 0.9285 2.0548 0
M  V30 30 H -4.4301 1.0029 0.3655 0
M  V30 31 H -4.8983 -0.4026 1.3499 0
M  V30 32 H -1.3023 -2.5011 -0.4395 0
M  V30 33 H -3.7187 -2.9737 -0.2005 0
M  V30 34 H -4.9446 -1.733 -0.4301 0
M  V30 35 H 2.2018 -1.9454 -2.0941 0
M  V30 36 H 2.9336 -0.0384 -1.3274 0
M  V30 37 H -0.7562 -2.1767 -3.0875 0
M  V30 38 H 2.2709 3.269 0.1785 0
M  V30 39 H 3.4162 2.325 -0.7522 0
M  V30 40 H -4.7885 -1.7565 -2.7557 0
M  V30 41 H -4.6156 -3.4569 -2.3216 0
M  V30 42 H 3.9339 0.9323 1.2885 0
M  V30 43 H 2.7825 1.8808 2.2242 0
M  V30 44 H -3.5923 -2.3678 -5.0262 0
M  V30 45 H -1.9383 -2.9894 -4.95 0
M  V30 46 H -3.2868 -4.0286 -4.471 0
M  V30 47 H 4.1174 3.9549 1.7683 0
M  V30 48 H 5.2715 3.0043 0.8304 0
M  V30 49 H 4.6339 2.5774 3.7999 0
M  V30 50 H 5.7878 1.6268 2.862 0
M  V30 51 H 6.944 3.3789 4.1695 0
M  V30 52 H 7.145 3.6858 2.436 0
M  V30 53 H 5.9846 4.6416 3.3791 0
M  V30 END ATOM
M  V30 BEGIN BOND
M  V30 1 1 1 2
M  V30 2 1 1 3
M  V30 3 2 2 4
M  V30 4 1 2 5
M  V30 5 1 3 6
M  V30 6 1 3 7
M  V30 7 1 3 8
M  V30 8 1 4 9
M  V30 9 1 4 10
M  V30 10 2 5 11
M  V30 11 1 6 12
M  V30 12 1 9 13
M  V30 13 2 9 14
M  V30 14 1 10 15
M  V30 15 1 11 16
M  V30 16 1 12 17
M  V30 17 2 15 18
M  V30 18 1 16 19
M  V30 19 1 18 20
M  V30 20 1 19 21
M  V30 21 1 21 22
M  V30 22 1 22 23
M  V30 23 1 6 10
M  V30 24 1 11 14
M  V30 25 1 17 18
M  V30 26 1 5 24
M  V30 27 1 6 25
M  V30 28 1 7 26
M  V30 29 1 7 27
M  V30 30 1 7 28
M  V30 31 1 8 29
M  V30 32 1 8 30
M  V30 33 1 8 31
M  V30 34 1 10 32
M  V30 35 1 12 33
M  V30 36 1 12 34
M  V30 37 1 13 35
M  V30 38 1 14 36
M  V30 39 1 15 37
M  V30 40 1 16 38
M  V30 41 1 16 39
M  V30 42 1 17 40
M  V30 43 1 17 41
M  V30 44 1 19 42
M  V30 45 1 19 43
M  V30 46 1 20 44
M  V30 47 1 20 45
M  V30 48 1 20 46
M  V30 49 1 21 47
M  V30 50 1 21 48
M  V30 51 1 22 49
M  V30 52 1 22 50
M  V30 53 1 23 51
M  V30 54 1 23 52
M  V30 55 1 23 53
M  V30 END BOND
M  V30 BEGIN COLLECTION
M  V30 MDLV30/STEABS ATOMS=(2 6 10)
M  V30 END COLLECTION
M  V30 END CTAB
M  END
>  <level_0>
549

>  <index>
549

>  <NO.>
550

>  <Name>
dronabinol

>  <SMILES>
CCCCCc1cc(O)c2c(c1)OC(C)(C)[C@@H]1CCC(C)=C[C@@H]21

>  <logBB>
0.0

>  <Class>
1

>  <MW>
314.22

>  <nHBAcc>
2

>  <nHBDon>
1

>  <SLogP>
5.74

>  <TopoPSA>
29.46

>  <MMFF94 Energy>
39.346

$$$$
OCCN(CCO)c1nc(N2CCCCC2)c2nc(N(CCO)CCO)nc(N3CCCCC3)c2n1
Actelion Java MolfileCreator 2.0

  0  0  0  0  0  0              0 V3000
M  V30 BEGIN CTAB
M  V30 COUNTS 76 79 0 0 0
M  V30 BEGIN ATOM
M  V30 1 O 1.6562 4.4213 -1.4984 0
M  V30 2 C 0.5051 4.8651 -2.2116 0
M  V30 3 C -0.7656 4.1231 -1.7711 0
M  V30 4 N -0.8641 2.8054 -2.3953 0
M  V30 5 C -0.5118 1.6671 -1.7088 0
M  V30 6 C -1.4692 2.6863 -3.721 0
M  V30 7 N -0.7007 0.4858 -2.2973 0
M  V30 8 N -0.0228 1.7588 -0.4752 0
M  V30 9 C -2.9672 2.3621 -3.636 0
M  V30 10 C -0.3838 -0.6437 -1.6258 0
M  V30 11 C 0.2927 0.6314 0.2178 0
M  V30 12 O -3.7122 3.5222 -3.2573 0
M  V30 13 N -0.6022 -1.8606 -2.307 0
M  V30 14 C 0.1055 -0.6339 -0.3114 0
M  V30 15 C 0.7947 0.625 1.5332 0
M  V30 16 C 0.5877 -2.6872 -2.527 0
M  V30 17 C -1.5685 -1.8187 -3.4035 0
M  V30 18 N 0.3398 -1.7751 0.3815 0
M  V30 19 N 1.0022 -0.525 2.2204 0
M  V30 20 N 1.1343 1.7851 2.2376 0
M  V30 21 C 0.1664 -4.1162 -2.8677 0
M  V30 22 C -2.0085 -3.2387 -3.76 0
M  V30 23 C 0.7689 -1.6962 1.6357 0
M  V30 24 C 0.6507 1.8757 3.6142 0
M  V30 25 C 1.4502 3.0282 1.5372 0
M  V30 26 C -0.8109 -4.142 -4.0398 0
M  V30 27 N 0.9818 -2.8593 2.34 0
M  V30 28 C 1.5722 2.7563 4.4553 0
M  V30 29 C 2.3685 3.9067 2.3874 0
M  V30 30 C 0.6739 -4.1489 1.7272 0
M  V30 31 C 1.5613 -2.7857 3.68 0
M  V30 32 C 1.8132 4.1069 3.792 0
M  V30 33 C -0.8365 -4.3915 1.5804 0
M  V30 34 C 0.5129 -2.4564 4.75 0
M  V30 35 O -1.4506 -4.5437 2.8634 0
M  V30 36 O -0.2673 -3.6044 5.0808 0
M  V30 37 H 2.4334 4.7177 -2.0002 0
M  V30 38 H 0.6865 4.7363 -3.2839 0
M  V30 39 H 0.3928 5.9345 -2.0064 0
M  V30 40 H -0.8177 4.0671 -0.6781 0
M  V30 41 H -1.6292 4.7226 -2.0831 0
M  V30 42 H -0.953 1.9215 -4.3141 0
M  V30 43 H -1.3403 3.6307 -4.2644 0
M  V30 44 H -3.3325 2.0484 -4.6188 0
M  V30 45 H -3.174 1.5647 -2.9154 0
M  V30 46 H -4.6003 3.2123 -3.0101 0
M  V30 47 H 1.2527 -2.7294 -1.6594 0
M  V30 48 H 1.1752 -2.2662 -3.3534 0
M  V30 49 H -1.1273 -1.3329 -4.2833 0
M  V30 50 H -2.4638 -1.2519 -3.1173 0
M  V30 51 H -0.3073 -4.5756 -1.9908 0
M  V30 52 H 1.0508 -4.7162 -3.1087 0
M  V30 53 H -2.5888 -3.6593 -2.9287 0
M  V30 54 H -2.6692 -3.2141 -4.6337 0
M  V30 55 H -0.3629 2.2961 3.6095 0
M  V30 56 H 0.5867 0.8996 4.1088 0
M  V30 57 H 0.5285 3.577 1.3129 0
M  V30 58 H 1.9856 2.8266 0.6032 0
M  V30 59 H -0.3019 -3.8069 -4.9517 0
M  V30 60 H -1.1517 -5.1679 -4.2177 0
M  V30 61 H 1.1369 2.903 5.4502 0
M  V30 62 H 2.5335 2.2462 4.5969 0
M  V30 63 H 3.3585 3.4379 2.4557 0
M  V30 64 H 2.5069 4.8775 1.8984 0
M  V30 65 H 1.0925 -4.9555 2.3411 0
M  V30 66 H 1.1593 -4.2245 0.7463 0
M  V30 67 H 2.3637 -2.0377 3.7056 0
M  V30 68 H 2.035 -3.7431 3.9288 0
M  V30 69 H 2.5175 4.6951 4.3905 0
M  V30 70 H 0.8748 4.6724 3.7449 0
M  V30 71 H -1.3435 -3.5783 1.0546 0
M  V30 72 H -1.0037 -5.3186 1.0227 0
M  V30 73 H 1.017 -2.1416 5.669 0
M  V30 74 H -0.166 -1.6548 4.4446 0
M  V30 75 H -2.4088 -4.6134 2.7003 0
M  V30 76 H -0.6749 -3.9085 4.2384 0
M  V30 END ATOM
M  V30 BEGIN BOND
M  V30 1 1 1 2
M  V30 2 1 2 3
M  V30 3 1 3 4
M  V30 4 1 4 5
M  V30 5 1 4 6
M  V30 6 1 5 7
M  V30 7 2 5 8
M  V30 8 1 6 9
M  V30 9 2 7 10
M  V30 10 1 8 11
M  V30 11 1 9 12
M  V30 12 1 10 13
M  V30 13 1 10 14
M  V30 14 2 11 15
M  V30 15 1 13 16
M  V30 16 1 13 17
M  V30 17 2 14 18
M  V30 18 1 15 19
M  V30 19 1 15 20
M  V30 20 1 16 21
M  V30 21 1 17 22
M  V30 22 1 18 23
M  V30 23 1 20 24
M  V30 24 1 20 25
M  V30 25 1 21 26
M  V30 26 1 23 27
M  V30 27 1 24 28
M  V30 28 1 25 29
M  V30 29 1 27 30
M  V30 30 1 27 31
M  V30 31 1 28 32
M  V30 32 1 30 33
M  V30 33 1 31 34
M  V30 34 1 33 35
M  V30 35 1 34 36
M  V30 36 1 11 14
M  V30 37 2 19 23
M  V30 38 1 22 26
M  V30 39 1 29 32
M  V30 40 1 1 37
M  V30 41 1 2 38
M  V30 42 1 2 39
M  V30 43 1 3 40
M  V30 44 1 3 41
M  V30 45 1 6 42
M  V30 46 1 6 43
M  V30 47 1 9 44
M  V30 48 1 9 45
M  V30 49 1 12 46
M  V30 50 1 16 47
M  V30 51 1 16 48
M  V30 52 1 17 49
M  V30 53 1 17 50
M  V30 54 1 21 51
M  V30 55 1 21 52
M  V30 56 1 22 53
M  V30 57 1 22 54
M  V30 58 1 24 55
M  V30 59 1 24 56
M  V30 60 1 25 57
M  V30 61 1 25 58
M  V30 62 1 26 59
M  V30 63 1 26 60
M  V30 64 1 28 61
M  V30 65 1 28 62
M  V30 66 1 29 63
M  V30 67 1 29 64
M  V30 68 1 30 65
M  V30 69 1 30 66
M  V30 70 1 31 67
M  V30 71 1 31 68
M  V30 72 1 32 69
M  V30 73 1 32 70
M  V30 74 1 33 71
M  V30 75 1 33 72
M  V30 76 1 34 73
M  V30 77 1 34 74
M  V30 78 1 35 75
M  V30 79 1 36 76
M  V30 END BOND
M  V30 END CTAB
M  END
>  <level_0>
560

>  <index>
560

>  <NO.>
561

>  <Name>
dipyridamole

>  <SMILES>
OCCN(CCO)c1nc(N2CCCCC2)c2nc(N(CCO)CCO)nc(N3CCCCC3)c2n1

>  <logBB>
0.0

>  <Class>
1

>  <MW>
504.32

>  <nHBAcc>
12

>  <nHBDon>
4

>  <SLogP>
-0.02

>  <TopoPSA>
145.44

>  <MMFF94 Energy>
-25.72

$$$$
C[C@H](Nc1cc(-c2c(-c3cccc(C(F)(F)F)c3)nc(C3CCNCC3)n2C)ccn1)c1ccccc1
Actelion Java MolfileCreator 2.0

  0  0  0  0  0  0              0 V3000
M  V30 BEGIN CTAB
M  V30 COUNTS 67 71 0 0 0
M  V30 BEGIN ATOM
M  V30 1 F 3.8472 -4.8108 -4.0881 0
M  V30 2 C 4.5085 -4.4252 -2.9611 0
M  V30 3 F 5.4528 -3.5325 -3.3689 0
M  V30 4 F 5.1964 -5.5245 -2.5407 0
M  V30 5 C 3.5765 -3.8705 -1.9142 0
M  V30 6 C 3.1569 -2.5311 -1.9793 0
M  V30 7 C 3.0864 -4.6836 -0.8822 0
M  V30 8 C 2.2684 -2.0021 -1.0319 0
M  V30 9 C 2.2169 -4.1621 0.0756 0
M  V30 10 C 1.8729 -0.6065 -1.1387 0
M  V30 11 C 1.816 -2.8263 0.0051 0
M  V30 12 N 2.7748 0.3625 -1.5036 0
M  V30 13 C 0.6144 -0.0588 -0.9216 0
M  V30 14 C 2.1255 1.5066 -1.4675 0
M  V30 15 N 0.7996 1.2955 -1.1508 0
M  V30 16 C -0.6596 -0.6725 -0.5442 0
M  V30 17 C 2.7335 2.8521 -1.7525 0
M  V30 18 C -0.231 2.3104 -1.1447 0
M  V30 19 C -1.3347 -0.2737 0.6134 0
M  V30 20 C -1.1987 -1.7014 -1.3089 0
M  V30 21 C 4.1224 2.9799 -1.1096 0
M  V30 22 C 2.8365 3.0885 -3.2643 0
M  V30 23 C -2.5357 -0.8843 0.9625 0
M  V30 24 C -2.3868 -2.266 -0.8899 0
M  V30 25 C 4.7712 4.3098 -1.4838 0
M  V30 26 C 3.5383 4.4114 -3.5606 0
M  V30 27 N -3.055 -1.8792 0.2183 0
M  V30 28 N -3.1639 -0.4965 2.1331 0
M  V30 29 N 4.8585 4.4854 -2.9347 0
M  V30 30 C -4.3521 -1.1975 2.6013 0 CFG=2
M  V30 31 C -5.0945 -0.2813 3.5687 0
M  V30 32 C -3.976 -2.5253 3.2662 0
M  V30 33 C -4.5431 0.0847 4.8087 0
M  V30 34 C -6.3469 0.2443 3.2122 0
M  V30 35 C -5.2327 0.9377 5.6725 0
M  V30 36 C -7.0351 1.0974 4.0776 0
M  V30 37 C -6.4789 1.442 5.3075 0
M  V30 38 H 3.5294 -1.8866 -2.7767 0
M  V30 39 H 3.3899 -5.7273 -0.8143 0
M  V30 40 H 1.8536 -4.7931 0.8835 0
M  V30 41 H 1.1567 -2.4367 0.7772 0
M  V30 42 H 2.103 3.6379 -1.3166 0
M  V30 43 H -0.2334 2.7861 -0.1611 0
M  V30 44 H -1.2031 1.8598 -1.3562 0
M  V30 45 H -0.0243 3.0454 -1.9259 0
M  V30 46 H -0.9148 0.4915 1.2579 0
M  V30 47 H -0.7095 -2.0605 -2.2079 0
M  V30 48 H 4.041 2.9049 -0.0181 0
M  V30 49 H 4.7746 2.157 -1.4319 0
M  V30 50 H 1.8375 3.096 -3.7172 0
M  V30 51 H 3.388 2.2669 -3.7414 0
M  V30 52 H -2.8494 -3.0743 -1.4489 0
M  V30 53 H 5.7812 4.3539 -1.0617 0
M  V30 54 H 4.2122 5.1442 -1.0428 0
M  V30 55 H 3.6544 4.5267 -4.6439 0
M  V30 56 H 2.9211 5.2527 -3.2224 0
M  V30 57 H -3.0948 0.4813 2.3794 0
M  V30 58 H 5.4473 3.7435 -3.3181 0
M  V30 59 H -5.0247 -1.411 1.7602 0
M  V30 60 H -3.2342 -2.3926 4.0616 0
M  V30 61 H -4.8573 -3.007 3.7043 0
M  V30 62 H -3.5438 -3.2227 2.5411 0
M  V30 63 H -3.5666 -0.291 5.1068 0
M  V30 64 H -6.7961 -0.0085 2.2538 0
M  V30 65 H -4.7962 1.2088 6.6304 0
M  V30 66 H -8.006 1.4932 3.7906 0
M  V30 67 H -7.016 2.105 5.9808 0
M  V30 END ATOM
M  V30 BEGIN BOND
M  V30 1 1 1 2
M  V30 2 1 2 3
M  V30 3 1 2 4
M  V30 4 1 2 5
M  V30 5 2 5 6
M  V30 6 1 5 7
M  V30 7 1 6 8
M  V30 8 2 7 9
M  V30 9 1 8 10
M  V30 10 2 8 11
M  V30 11 1 10 12
M  V30 12 2 10 13
M  V30 13 2 12 14
M  V30 14 1 13 15
M  V30 15 1 13 16
M  V30 16 1 14 17
M  V30 17 1 15 18
M  V30 18 2 16 19
M  V30 19 1 16 20
M  V30 20 1 17 21
M  V30 21 1 17 22
M  V30 22 1 19 23
M  V30 23 2 20 24
M  V30 24 1 21 25
M  V30 25 1 22 26
M  V30 26 2 23 27
M  V30 27 1 23 28
M  V30 28 1 25 29
M  V30 29 1 28 30
M  V30 30 1 30 31
M  V30 31 1 30 32
M  V30 32 2 31 33
M  V30 33 1 31 34
M  V30 34 1 33 35
M  V30 35 2 34 36
M  V30 36 2 35 37
M  V30 37 1 9 11
M  V30 38 1 14 15
M  V30 39 1 24 27
M  V30 40 1 26 29
M  V30 41 1 36 37
M  V30 42 1 6 38
M  V30 43 1 7 39
M  V30 44 1 9 40
M  V30 45 1 11 41
M  V30 46 1 17 42
M  V30 47 1 18 43
M  V30 48 1 18 44
M  V30 49 1 18 45
M  V30 50 1 19 46
M  V30 51 1 20 47
M  V30 52 1 21 48
M  V30 53 1 21 49
M  V30 54 1 22 50
M  V30 55 1 22 51
M  V30 56 1 24 52
M  V30 57 1 25 53
M  V30 58 1 25 54
M  V30 59 1 26 55
M  V30 60 1 26 56
M  V30 61 1 28 57
M  V30 62 1 29 58
M  V30 63 1 30 59
M  V30 64 1 32 60
M  V30 65 1 32 61
M  V30 66 1 32 62
M  V30 67 1 33 63
M  V30 68 1 34 64
M  V30 69 1 35 65
M  V30 70 1 36 66
M  V30 71 1 37 67
M  V30 END BOND
M  V30 BEGIN COLLECTION
M  V30 MDLV30/STEABS ATOMS=(1 30)
M  V30 END COLLECTION
M  V30 END CTAB
M  END
>  <level_0>
562

>  <index>
562

>  <NO.>
563

>  <Name>
compound d

>  <SMILES>
C[C@H](Nc1cc(-c2c(-c3cccc(C(F)(F)F)c3)nc(C3CCNCC3)n2C)ccn1)c1ccccc1

>  <logBB>
0.01

>  <Class>
1

>  <MW>
505.25

>  <nHBAcc>
4

>  <nHBDon>
2

>  <SLogP>
6.81

>  <TopoPSA>
54.77

>  <MMFF94 Energy>
41.738

$$$$
CO
Actelion Java MolfileCreator 2.0

  0  0  0  0  0  0              0 V3000
M  V30 BEGIN CTAB
M  V30 COUNTS 6 5 0 0 0
M  V30 BEGIN ATOM
M  V30 1 O -0.921 0.5667 0.0708 0
M  V30 2 C 0.3504 -0.052 0.138 0
M  V30 3 H -1.3585 0.2346 -0.7315 0
M  V30 4 H 0.8704 0.3006 1.0318 0
M  V30 5 H 0.2263 -1.1362 0.1953 0
M  V30 6 H 0.9326 0.2126 -0.7479 0
M  V30 END ATOM
M  V30 BEGIN BOND
M  V30 1 1 1 2
M  V30 2 1 1 3
M  V30 3 1 2 4
M  V30 4 1 2 5
M  V30 5 1 2 6
M  V30 END BOND
M  V30 END CTAB
M  END
>  <level_0>
565

>  <index>
565

>  <NO.>
566

>  <Name>
methanol

>  <SMILES>
CO

>  <logBB>
0.02

>  <Class>
1

>  <MW>
32.03

>  <nHBAcc>
1

>  <nHBDon>
1

>  <SLogP>
-0.39

>  <TopoPSA>
20.23

>  <MMFF94 Energy>
0.66577

$$$$
O=C(CC1=NC2NN(c3ccccc3)C(=O)C2=C1CC(=O)c1cccc2ccccc12)c1cccc2ccccc12
Actelion Java MolfileCreator 2.0

  0  0  0  0  0  0              0 V3000
M  V30 BEGIN CTAB
M  V30 COUNTS 66 72 0 0 0
M  V30 BEGIN ATOM
M  V30 1 O -1.7014 -1.215 -3.1615 0
M  V30 2 C -2.2261 -0.7477 -2.1684 0
M  V30 3 N -3.4782 -0.965 -1.5675 0
M  V30 4 C -1.5884 0.1982 -1.2562 0
M  V30 5 N -3.628 -0.2484 -0.3214 0
M  V30 6 C -4.481 -1.8497 -2.0247 0
M  V30 7 C -0.3444 0.3828 -0.8356 0
M  V30 8 C -2.6248 0.8067 -0.4181 0 CFG=1
M  V30 9 C -5.387 -2.4231 -1.1205 0
M  V30 10 C -4.6021 -2.1618 -3.3842 0
M  V30 11 C -0.6418 1.0371 0.4619 0
M  V30 12 C 0.9443 -0.15 -1.3271 0
M  V30 13 N -1.9033 1.2235 0.7823 0
M  V30 14 C -6.3906 -3.2876 -1.5662 0
M  V30 15 C -5.6068 -3.0258 -3.8302 0
M  V30 16 C 0.4538 1.4669 1.3993 0
M  V30 17 C 1.3095 -1.4486 -0.6239 0
M  V30 18 C -6.5009 -3.5874 -2.9216 0
M  V30 19 C 1.0225 2.8141 1.0293 0
M  V30 20 O 1.1006 -1.6547 0.5687 0
M  V30 21 C 2.0217 -2.4696 -1.4272 0
M  V30 22 O 1.2421 3.1513 -0.1316 0
M  V30 23 C 1.4366 3.7094 2.1309 0
M  V30 24 C 3.3557 -2.8411 -1.1198 0
M  V30 25 C 1.3284 -3.048 -2.4981 0
M  V30 26 C 0.5045 4.3018 3.0201 0
M  V30 27 C 2.8139 3.9391 2.2486 0
M  V30 28 C 3.9788 -3.8087 -1.9461 0
M  V30 29 C 4.1088 -2.3017 -0.0492 0
M  V30 30 C 1.9557 -3.9992 -3.2935 0
M  V30 31 C 1.017 5.1042 4.0698 0
M  V30 32 C -0.9009 4.1628 2.921 0
M  V30 33 C 3.2955 4.7349 3.2803 0
M  V30 34 C 3.2707 -4.3732 -3.0205 0
M  V30 35 C 5.3032 -4.1995 -1.6886 0
M  V30 36 C 5.4243 -2.7022 0.193 0
M  V30 37 C 2.4032 5.3048 4.1877 0
M  V30 38 C 0.1371 5.704 4.9858 0
M  V30 39 C -1.7612 4.7674 3.8399 0
M  V30 40 C 6.0215 -3.6499 -0.6275 0
M  V30 41 C -1.242 5.5341 4.8745 0
M  V30 42 H -4.5466 0.1932 -0.3176 0
M  V30 43 H -3.0516 1.6887 -0.9144 0
M  V30 44 H -5.3075 -2.2221 -0.0548 0
M  V30 45 H -3.9248 -1.7348 -4.1195 0
M  V30 46 H 0.8918 -0.3046 -2.4099 0
M  V30 47 H 1.7522 0.5683 -1.1523 0
M  V30 48 H -7.08 -3.7313 -0.8524 0
M  V30 49 H -5.6877 -3.2597 -4.8888 0
M  V30 50 H 1.2772 0.7484 1.3821 0
M  V30 51 H 0.0577 1.4732 2.4198 0
M  V30 52 H -7.2791 -4.2619 -3.2691 0
M  V30 53 H 0.2982 -2.773 -2.7134 0
M  V30 54 H 3.5086 3.4967 1.5379 0
M  V30 55 H 3.6697 -1.567 0.6233 0
M  V30 56 H 1.4204 -4.4524 -4.1245 0
M  V30 57 H -1.3524 3.5854 2.117 0
M  V30 58 H 4.363 4.9143 3.3802 0
M  V30 59 H 3.7425 -5.12 -3.6567 0
M  V30 60 H 5.7893 -4.9431 -2.3172 0
M  V30 61 H 5.9764 -2.2764 1.0269 0
M  V30 62 H 2.8009 5.9242 4.9902 0
M  V30 63 H 0.522 6.3178 5.798 0
M  V30 64 H -2.8363 4.6382 3.7415 0
M  V30 65 H 7.0443 -3.9665 -0.4408 0
M  V30 66 H -1.9088 6.0064 5.5912 0
M  V30 END ATOM
M  V30 BEGIN BOND
M  V30 1 2 1 2
M  V30 2 1 2 3
M  V30 3 1 2 4
M  V30 4 1 3 5
M  V30 5 1 3 6
M  V30 6 2 4 7
M  V30 7 1 4 8
M  V30 8 2 6 9
M  V30 9 1 6 10
M  V30 10 1 7 11
M  V30 11 1 7 12
M  V30 12 1 8 13
M  V30 13 1 9 14
M  V30 14 2 10 15
M  V30 15 1 11 16
M  V30 16 1 12 17
M  V30 17 2 14 18
M  V30 18 1 16 19
M  V30 19 2 17 20
M  V30 20 1 17 21
M  V30 21 2 19 22
M  V30 22 1 19 23
M  V30 23 1 21 24
M  V30 24 2 21 25
M  V30 25 1 23 26
M  V30 26 2 23 27
M  V30 27 1 24 28
M  V30 28 2 24 29
M  V30 29 1 25 30
M  V30 30 1 26 31
M  V30 31 2 26 32
M  V30 32 1 27 33
M  V30 33 1 28 34
M  V30 34 2 28 35
M  V30 35 1 29 36
M  V30 36 1 31 37
M  V30 37 2 31 38
M  V30 38 1 32 39
M  V30 39 1 35 40
M  V30 40 1 38 41
M  V30 41 1 5 8
M  V30 42 2 11 13
M  V30 43 1 15 18
M  V30 44 2 30 34
M  V30 45 2 33 37
M  V30 46 2 36 40
M  V30 47 2 39 41
M  V30 48 1 5 42
M  V30 49 1 8 43
M  V30 50 1 9 44
M  V30 51 1 10 45
M  V30 52 1 12 46
M  V30 53 1 12 47
M  V30 54 1 14 48
M  V30 55 1 15 49
M  V30 56 1 16 50
M  V30 57 1 16 51
M  V30 58 1 18 52
M  V30 59 1 25 53
M  V30 60 1 27 54
M  V30 61 1 29 55
M  V30 62 1 30 56
M  V30 63 1 32 57
M  V30 64 1 33 58
M  V30 65 1 34 59
M  V30 66 1 35 60
M  V30 67 1 36 61
M  V30 68 1 37 62
M  V30 69 1 38 63
M  V30 70 1 39 64
M  V30 71 1 40 65
M  V30 72 1 41 66
M  V30 END BOND
M  V30 BEGIN COLLECTION
M  V30 MDLV30/STERAC1 ATOMS=(1 8)
M  V30 END COLLECTION
M  V30 END CTAB
M  END
>  <level_0>
567

>  <index>
567

>  <NO.>
568

>  <Name>
nsc382927

>  <SMILES>
O=C(CC1=NC2NN(c3ccccc3)C(=O)C2=C1CC(=O)c1cccc2ccccc12)c1cccc2ccccc12

>  <logBB>
0.02

>  <Class>
1

>  <MW>
535.19

>  <nHBAcc>
5

>  <nHBDon>
1

>  <SLogP>
6.47

>  <TopoPSA>
78.84

>  <MMFF94 Energy>
129.47

$$$$
[Ar]
Actelion Java MolfileCreator 2.0

  0  0  0  0  0  0              0 V3000
M  V30 BEGIN CTAB
M  V30 COUNTS 1 0 0 0 0
M  V30 BEGIN ATOM
M  V30 1 Ar 0.0 0.0 0.0 0
M  V30 END ATOM
M  V30 BEGIN BOND
M  V30 END BOND
M  V30 END CTAB
M  END
>  <level_0>
569

>  <index>
569

>  <NO.>
570

>  <Name>
argon

>  <SMILES>
[Ar]

>  <logBB>
0.03

>  <Class>
1

>  <MW>
39.96

>  <nHBAcc>
0

>  <nHBDon>
0

>  <SLogP>
0.0

>  <TopoPSA>
0.0

>  <MMFF94 Energy>
Couldn't assign an atom type to atom 0 (Ar)

$$$$
[N-]=[N+]=O
Actelion Java MolfileCreator 2.0

  0  0  0  0  0  0              0 V3000
M  V30 BEGIN CTAB
M  V30 COUNTS 3 2 0 0 0
M  V30 BEGIN ATOM
M  V30 1 O -1.0099 0.3106 -0.5437 0
M  V30 2 N -0.0757 0.0059 -0.0252 0 CHG=1
M  V30 3 N 1.0795 -0.3709 0.6158 0 CHG=-1
M  V30 END ATOM
M  V30 BEGIN BOND
M  V30 1 2 1 2
M  V30 2 2 2 3
M  V30 END BOND
M  V30 END CTAB
M  END
>  <level_0>
570

>  <index>
570

>  <NO.>
571

>  <Name>
nitrous oxide

>  <SMILES>
[N-]=[N+]=O

>  <logBB>
0.03

>  <Class>
1

>  <MW>
44.0

>  <nHBAcc>
1

>  <nHBDon>
0

>  <SLogP>
-0.16

>  <TopoPSA>
53.47

>  <MMFF94 Energy>
MMFF94 error code 2

$$$$
NN
Actelion Java MolfileCreator 2.0

  0  0  0  0  0  0              0 V3000
M  V30 BEGIN CTAB
M  V30 COUNTS 6 5 0 0 0
M  V30 BEGIN ATOM
M  V30 1 N -0.624 -0.2079 -0.2079 0
M  V30 2 N 0.6833 0.1563 0.2765 0
M  V30 3 H -0.5765 -0.5414 -1.1772 0
M  V30 4 H -1.0008 -1.0053 0.3166 0
M  V30 5 H 0.6357 0.4898 1.2458 0
M  V30 6 H 1.0601 0.9537 -0.2479 0
M  V30 END ATOM
M  V30 BEGIN BOND
M  V30 1 1 1 2
M  V30 2 1 1 3
M  V30 3 1 1 4
M  V30 4 1 2 5
M  V30 5 1 2 6
M  V30 END BOND
M  V30 END CTAB
M  END
>  <level_0>
573

>  <index>
573

>  <NO.>
574

>  <Name>
nitrogen

>  <SMILES>
NN

>  <logBB>
0.03

>  <Class>
1

>  <MW>
32.04

>  <nHBAcc>
2

>  <nHBDon>
2

>  <SLogP>
-1.18

>  <TopoPSA>
52.04

>  <MMFF94 Energy>
48.827

$$$$
[Xe]
Actelion Java MolfileCreator 2.0

  0  0  0  0  0  0              0 V3000
M  V30 BEGIN CTAB
M  V30 COUNTS 1 0 0 0 0
M  V30 BEGIN ATOM
M  V30 1 Xe 0.0 0.0 0.0 0
M  V30 END ATOM
M  V30 BEGIN BOND
M  V30 END BOND
M  V30 END CTAB
M  END
>  <level_0>
574

>  <index>
574

>  <NO.>
575

>  <Name>
7440-63-3

>  <SMILES>
[Xe]

>  <logBB>
0.03

>  <Class>
1

>  <MW>
131.9

>  <nHBAcc>
0

>  <nHBDon>
0

>  <SLogP>
0.0

>  <TopoPSA>
0.0

>  <MMFF94 Energy>
Couldn't assign an atom type to atom 0 (Xe)

$$$$
N[C@@H](Cc1ccc(B(O)O)cc1)C(=O)O
Actelion Java MolfileCreator 2.0

  0  0  0  0  0  0              0 V3000
M  V30 BEGIN CTAB
M  V30 COUNTS 27 27 0 0 0
M  V30 BEGIN ATOM
M  V30 1 O -0.5363 -1.9932 -1.1495 0
M  V30 2 C -1.6322 -1.9053 -0.6125 0
M  V30 3 O -2.7185 -1.7118 -1.4127 0
M  V30 4 C -1.9917 -1.9756 0.8967 0 CFG=1
M  V30 5 N -0.921 -2.7145 1.6605 0
M  V30 6 C -2.0765 -0.4737 1.1057 0
M  V30 7 C -0.8282 0.1833 0.5869 0
M  V30 8 C 0.2588 0.3662 1.4221 0
M  V30 9 C -0.7534 0.6133 -0.7357 0
M  V30 10 C 1.4114 0.979 0.9231 0
M  V30 11 C 0.3973 1.2187 -1.2126 0
M  V30 12 C 1.4836 1.4043 -0.3873 0
M  V30 13 B 2.8393 2.116 -0.9446 0
M  V30 14 O 3.869 2.2766 -0.109 0
M  V30 15 O 2.9001 2.5255 -2.2148 0
M  V30 16 H -2.3421 -1.7102 -2.3205 0
M  V30 17 H -2.9547 -2.4689 1.0621 0
M  V30 18 H -0.1321 -2.7481 0.9919 0
M  V30 19 H -0.6132 -2.0907 2.4074 0
M  V30 20 H -2.9367 -0.0582 0.5622 0
M  V30 21 H -2.2312 -0.2253 2.165 0
M  V30 22 H 0.2213 0.0793 2.3213 0
M  V30 23 H -1.5114 0.4836 -1.3102 0
M  V30 24 H 2.1383 1.092 1.5123 0
M  V30 25 H 0.4187 1.5055 -2.1318 0
M  V30 26 H 4.5385 2.6147 -0.4605 0
M  V30 27 H 3.6767 2.6974 -2.4735 0
M  V30 END ATOM
M  V30 BEGIN BOND
M  V30 1 2 1 2
M  V30 2 1 2 3
M  V30 3 1 2 4
M  V30 4 1 4 5
M  V30 5 1 4 6
M  V30 6 1 6 7
M  V30 7 2 7 8
M  V30 8 1 7 9
M  V30 9 1 8 10
M  V30 10 2 9 11
M  V30 11 2 10 12
M  V30 12 1 12 13
M  V30 13 1 13 14
M  V30 14 1 13 15
M  V30 15 1 11 12
M  V30 16 1 3 16
M  V30 17 1 4 17
M  V30 18 1 5 18
M  V30 19 1 5 19
M  V30 20 1 6 20
M  V30 21 1 6 21
M  V30 22 1 8 22
M  V30 23 1 9 23
M  V30 24 1 10 24
M  V30 25 1 11 25
M  V30 26 1 14 26
M  V30 27 1 15 27
M  V30 END BOND
M  V30 BEGIN COLLECTION
M  V30 MDLV30/STEABS ATOMS=(1 4)
M  V30 END COLLECTION
M  V30 END CTAB
M  END
>  <level_0>
585

>  <index>
585

>  <NO.>
586

>  <Name>
4-boronophenylalanine

>  <SMILES>
N[C@@H](Cc1ccc(B(O)O)cc1)C(=O)O

>  <logBB>
0.05

>  <Class>
1

>  <MW>
209.09

>  <nHBAcc>
4

>  <nHBDon>
4

>  <SLogP>
-1.68

>  <TopoPSA>
103.78

>  <MMFF94 Energy>
Couldn't assign an atom type to atom 12 (B)

$$$$
CN1C(=O)NC2=NCN(C)C2C1=O
Actelion Java MolfileCreator 2.0

  0  0  0  0  0  0              0 V3000
M  V30 BEGIN CTAB
M  V30 COUNTS 23 24 0 0 0
M  V30 BEGIN ATOM
M  V30 1 O -3.18 0.397 1.1121 0
M  V30 2 C -2.0851 0.1898 0.5933 0
M  V30 3 N -1.3577 1.1501 -0.1042 0
M  V30 4 N -1.4985 -1.0364 0.7426 0
M  V30 5 C -0.1099 0.945 -0.7131 0
M  V30 6 C -1.8801 2.5045 -0.1438 0
M  V30 7 C -0.3191 -1.3762 0.1974 0
M  V30 8 O 0.5583 1.8705 -1.1758 0
M  V30 9 C 0.2929 -0.5055 -0.8367 0 CFG=2
M  V30 10 N 0.3334 -2.4371 0.5398 0
M  V30 11 N 1.7193 -0.8802 -0.7095 0
M  V30 12 C 1.5876 -2.278 -0.2394 0
M  V30 13 C 2.4355 -0.094 0.3005 0
M  V30 14 H -1.9484 -1.6886 1.3698 0
M  V30 15 H -2.9312 2.5537 0.1519 0
M  V30 16 H -1.7758 2.9116 -1.1549 0
M  V30 17 H -1.288 3.1222 0.5394 0
M  V30 18 H -0.0746 -0.8485 -1.8136 0
M  V30 19 H 1.5434 -2.9486 -1.1072 0
M  V30 20 H 2.4454 -2.5978 0.3641 0
M  V30 21 H 2.5811 0.9366 -0.0365 0
M  V30 22 H 3.4425 -0.5009 0.4496 0
M  V30 23 H 1.9299 -0.0753 1.273 0
M  V30 END ATOM
M  V30 BEGIN BOND
M  V30 1 2 1 2
M  V30 2 1 2 3
M  V30 3 1 2 4
M  V30 4 1 3 5
M  V30 5 1 3 6
M  V30 6 1 4 7
M  V30 7 2 5 8
M  V30 8 1 5 9
M  V30 9 2 7 10
M  V30 10 1 9 11
M  V30 11 1 10 12
M  V30 12 1 11 13
M  V30 13 1 7 9
M  V30 14 1 11 12
M  V30 15 1 4 14
M  V30 16 1 6 15
M  V30 17 1 6 16
M  V30 18 1 6 17
M  V30 19 1 9 18
M  V30 20 1 12 19
M  V30 21 1 12 20
M  V30 22 1 13 21
M  V30 23 1 13 22
M  V30 24 1 13 23
M  V30 END BOND
M  V30 BEGIN COLLECTION
M  V30 MDLV30/STERAC1 ATOMS=(1 9)
M  V30 END COLLECTION
M  V30 END CTAB
M  END
>  <level_0>
587

>  <index>
587

>  <NO.>
588

>  <Name>
paraxanthine

>  <SMILES>
CN1C(=O)NC2=NCN(C)C2C1=O

>  <logBB>
0.06

>  <Class>
1

>  <MW>
182.08

>  <nHBAcc>
4

>  <nHBDon>
1

>  <SLogP>
-1.16

>  <TopoPSA>
65.01

>  <MMFF94 Energy>
-67.639

$$$$
CN1C(=O)NC2N=CN(C)C2C1=O
Actelion Java MolfileCreator 2.0

  0  0  0  0  0  0              0 V3000
M  V30 BEGIN CTAB
M  V30 COUNTS 23 24 0 0 0
M  V30 BEGIN ATOM
M  V30 1 O 2.7763 1.6651 -0.3962 0
M  V30 2 C 1.6413 1.201 -0.4782 0
M  V30 3 N 1.3407 0.0034 -1.0962 0
M  V30 4 N 0.6132 1.8754 0.0793 0
M  V30 5 C 0.1217 -0.6565 -1.0118 0
M  V30 6 C 2.4266 -0.6895 -1.7655 0
M  V30 7 C -0.7617 1.5168 -0.0279 0
M  V30 8 O -0.0444 -1.7937 -1.4718 0
M  V30 9 C -1.0213 0.0309 -0.2966 0
M  V30 10 N -1.3626 1.8181 1.3038 0
M  V30 11 N -1.2668 -0.448 1.0598 0
M  V30 12 C -1.5486 0.6389 1.8224 0
M  V30 13 C -1.648 -1.8061 1.3377 0
M  V30 14 H 0.8405 2.7276 0.5721 0
M  V30 15 H 3.1985 0.0069 -2.1057 0
M  V30 16 H 2.0531 -1.2495 -2.6284 0
M  V30 17 H 2.8716 -1.3949 -1.0561 0
M  V30 18 H -1.2188 2.1471 -0.7982 0
M  V30 19 H -1.9349 -0.0826 -0.8937 0
M  V30 20 H -1.9595 0.4583 2.8288 0
M  V30 21 H -1.6685 -1.9909 2.417 0
M  V30 22 H -2.6448 -2.0145 0.9364 0
M  V30 23 H -0.9401 -2.5153 0.8997 0
M  V30 END ATOM
M  V30 BEGIN BOND
M  V30 1 2 1 2
M  V30 2 1 2 3
M  V30 3 1 2 4
M  V30 4 1 3 5
M  V30 5 1 3 6
M  V30 6 1 4 7
M  V30 7 2 5 8
M  V30 8 1 5 9
M  V30 9 1 7 10
M  V30 10 1 9 11
M  V30 11 2 10 12
M  V30 12 1 11 13
M  V30 13 1 7 9
M  V30 14 1 11 12
M  V30 15 1 4 14
M  V30 16 1 6 15
M  V30 17 1 6 16
M  V30 18 1 6 17
M  V30 19 1 7 18
M  V30 20 1 9 19
M  V30 21 1 12 20
M  V30 22 1 13 21
M  V30 23 1 13 22
M  V30 24 1 13 23
M  V30 END BOND
M  V30 END CTAB
M  END
>  <level_0>
588

>  <index>
588

>  <NO.>
589

>  <Name>
paraxanthine

>  <SMILES>
CN1C(=O)NC2N=CN(C)C2C1=O

>  <logBB>
0.06

>  <Class>
1

>  <MW>
182.08

>  <nHBAcc>
4

>  <nHBDon>
1

>  <SLogP>
-1.16

>  <TopoPSA>
65.01

>  <MMFF94 Energy>
-76.916

$$$$
CCOc1cc(OCCCCOc2ccc(C(=O)CC(C)C)c(O)c2)ccc1CCC(=O)O
Actelion Java MolfileCreator 2.0

  0  0  0  0  0  0              0 V3000
M  V30 BEGIN CTAB
M  V30 COUNTS 67 68 0 0 0
M  V30 BEGIN ATOM
M  V30 1 O -6.9409 3.5446 -7.9695 0
M  V30 2 C -6.6158 2.3706 -7.9298 0
M  V30 3 O -6.9424 1.5385 -8.9391 0
M  V30 4 C -5.8716 1.6614 -6.8355 0
M  V30 5 C -5.39 2.648 -5.7751 0
M  V30 6 C -4.6533 1.9508 -4.6523 0
M  V30 7 C -3.309 1.5618 -4.7866 0
M  V30 8 C -5.3337 1.6673 -3.4581 0
M  V30 9 O -2.7193 1.863 -5.9864 0
M  V30 10 C -2.6742 0.9066 -3.7265 0
M  V30 11 C -4.6889 1.0141 -2.4052 0
M  V30 12 C -1.3406 1.5347 -6.1459 0
M  V30 13 C -3.3562 0.6331 -2.5355 0
M  V30 14 C -0.9108 1.9911 -7.5286 0
M  V30 15 O -2.6092 -0.0137 -1.5887 0
M  V30 16 C -3.2243 -0.2516 -0.3236 0
M  V30 17 C -2.2109 -0.939 0.5908 0
M  V30 18 C -1.0101 -0.0433 0.8982 0
M  V30 19 C -0.0072 -0.7426 1.8126 0
M  V30 20 O 1.0604 0.169 2.0691 0
M  V30 21 C 2.0767 -0.2628 2.8743 0
M  V30 22 C 3.0871 0.6743 3.0939 0
M  V30 23 C 2.1763 -1.5216 3.4668 0
M  V30 24 C 4.1835 0.3598 3.8967 0
M  V30 25 C 3.2767 -1.84 4.2763 0
M  V30 26 O 5.1222 1.3475 4.0442 0
M  V30 27 C 4.2907 -0.8998 4.5041 0
M  V30 28 C 5.4707 -1.2142 5.3675 0
M  V30 29 O 6.3863 -0.3922 5.4248 0
M  V30 30 C 5.5041 -2.534 6.1255 0
M  V30 31 C 6.6654 -2.6346 7.1303 0
M  V30 32 C 6.4235 -1.7486 8.3556 0
M  V30 33 C 6.8496 -4.0873 7.5747 0
M  V30 34 H -7.4161 2.1131 -9.5763 0
M  V30 35 H -5.0212 1.1362 -7.2842 0
M  V30 36 H -6.5438 0.9201 -6.3883 0
M  V30 37 H -4.7431 3.414 -6.2222 0
M  V30 38 H -6.2442 3.2025 -5.3637 0
M  V30 39 H -6.376 1.9568 -3.3399 0
M  V30 40 H -1.6382 0.591 -3.7934 0
M  V30 41 H -5.2576 0.8181 -1.5026 0
M  V30 42 H -1.1966 0.4511 -6.067 0
M  V30 43 H -0.735 2.0533 -5.3937 0
M  V30 44 H 0.1436 1.7612 -7.7049 0
M  V30 45 H -1.5138 1.5018 -8.3007 0
M  V30 46 H -1.0618 3.0698 -7.6426 0
M  V30 47 H -4.0869 -0.9166 -0.45 0
M  V30 48 H -3.5474 0.6928 0.1309 0
M  V30 49 H -2.7072 -1.2233 1.526 0
M  V30 50 H -1.855 -1.858 0.1093 0
M  V30 51 H -1.3451 0.8884 1.3712 0
M  V30 52 H -0.5026 0.2557 -0.0271 0
M  V30 53 H -0.4995 -1.0171 2.7534 0
M  V30 54 H 0.376 -1.6408 1.3136 0
M  V30 55 H 3.0231 1.658 2.6348 0
M  V30 56 H 1.4158 -2.2819 3.3185 0
M  V30 57 H 3.3136 -2.8352 4.7096 0
M  V30 58 H 5.8611 0.9846 4.5839 0
M  V30 59 H 5.606 -3.3284 5.3762 0
M  V30 60 H 4.5551 -2.6689 6.6573 0
M  V30 61 H 7.5963 -2.3099 6.649 0
M  V30 62 H 6.3264 -0.6952 8.0757 0
M  V30 63 H 5.51 -2.0424 8.8842 0
M  V30 64 H 7.259 -1.8269 9.0597 0
M  V30 65 H 7.072 -4.7311 6.7173 0
M  V30 66 H 5.9472 -4.4716 8.0626 0
M  V30 67 H 7.6814 -4.1757 8.2817 0
M  V30 END ATOM
M  V30 BEGIN BOND
M  V30 1 2 1 2
M  V30 2 1 2 3
M  V30 3 1 2 4
M  V30 4 1 4 5
M  V30 5 1 5 6
M  V30 6 2 6 7
M  V30 7 1 6 8
M  V30 8 1 7 9
M  V30 9 1 7 10
M  V30 10 2 8 11
M  V30 11 1 9 12
M  V30 12 2 10 13
M  V30 13 1 12 14
M  V30 14 1 13 15
M  V30 15 1 15 16
M  V30 16 1 16 17
M  V30 17 1 17 18
M  V30 18 1 18 19
M  V30 19 1 19 20
M  V30 20 1 20 21
M  V30 21 2 21 22
M  V30 22 1 21 23
M  V30 23 1 22 24
M  V30 24 2 23 25
M  V30 25 1 24 26
M  V30 26 2 24 27
M  V30 27 1 27 28
M  V30 28 2 28 29
M  V30 29 1 28 30
M  V30 30 1 30 31
M  V30 31 1 31 32
M  V30 32 1 31 33
M  V30 33 1 11 13
M  V30 34 1 25 27
M  V30 35 1 3 34
M  V30 36 1 4 35
M  V30 37 1 4 36
M  V30 38 1 5 37
M  V30 39 1 5 38
M  V30 40 1 8 39
M  V30 41 1 10 40
M  V30 42 1 11 41
M  V30 43 1 12 42
M  V30 44 1 12 43
M  V30 45 1 14 44
M  V30 46 1 14 45
M  V30 47 1 14 46
M  V30 48 1 16 47
M  V30 49 1 16 48
M  V30 50 1 17 49
M  V30 51 1 17 50
M  V30 52 1 18 51
M  V30 53 1 18 52
M  V30 54 1 19 53
M  V30 55 1 19 54
M  V30 56 1 22 55
M  V30 57 1 23 56
M  V30 58 1 25 57
M  V30 59 1 26 58
M  V30 60 1 30 59
M  V30 61 1 30 60
M  V30 62 1 31 61
M  V30 63 1 32 62
M  V30 64 1 32 63
M  V30 65 1 32 64
M  V30 66 1 33 65
M  V30 67 1 33 66
M  V30 68 1 33 67
M  V30 END BOND
M  V30 END CTAB
M  END
>  <level_0>
596

>  <index>
596

>  <NO.>
597

>  <Name>
cube-8

>  <SMILES>
CCOc1cc(OCCCCOc2ccc(C(=O)CC(C)C)c(O)c2)ccc1CCC(=O)O

>  <logBB>
0.08

>  <Class>
1

>  <MW>
458.23

>  <nHBAcc>
6

>  <nHBDon>
2

>  <SLogP>
5.27

>  <TopoPSA>
102.29

>  <MMFF94 Energy>
29.729

$$$$
Cn1c(=O)[nH]c2ncn(C)c2c1=O
Actelion Java MolfileCreator 2.0

  0  0  0  0  0  0              0 V3000
M  V30 BEGIN CTAB
M  V30 COUNTS 21 22 0 0 0
M  V30 BEGIN ATOM
M  V30 1 O 0.3152 -3.1554 -1.419 0
M  V30 2 C 0.2861 -2.0356 -0.9067 0
M  V30 3 N -0.9085 -1.3759 -0.5741 0
M  V30 4 N 1.4605 -1.3782 -0.6371 0
M  V30 5 C -0.9877 -0.1034 0.0091 0
M  V30 6 C -2.1395 -2.0819 -0.8644 0
M  V30 7 C 1.4592 -0.145 -0.0737 0
M  V30 8 O -2.0373 0.4645 0.296 0
M  V30 9 C 0.292 0.4795 0.242 0
M  V30 10 N 2.5506 0.5938 0.2352 0
M  V30 11 N 0.6773 1.6741 0.7777 0
M  V30 12 C 2.049 1.6995 0.7534 0
M  V30 13 C -0.1865 2.7141 1.2753 0
M  V30 14 H 2.3426 -1.8149 -0.8596 0
M  V30 15 H -2.1379 -3.0344 -0.3244 0
M  V30 16 H -3.0274 -1.5116 -0.5807 0
M  V30 17 H -2.1801 -2.2978 -1.937 0
M  V30 18 H 2.6268 2.5383 1.1215 0
M  V30 19 H -0.8279 3.0543 0.4584 0
M  V30 20 H 0.4189 3.5476 1.6402 0
M  V30 21 H -0.7851 2.3071 2.0941 0
M  V30 END ATOM
M  V30 BEGIN BOND
M  V30 1 2 1 2
M  V30 2 1 2 3
M  V30 3 1 2 4
M  V30 4 1 3 5
M  V30 5 1 3 6
M  V30 6 1 4 7
M  V30 7 2 5 8
M  V30 8 1 5 9
M  V30 9 1 7 10
M  V30 10 1 9 11
M  V30 11 2 10 12
M  V30 12 1 11 13
M  V30 13 2 7 9
M  V30 14 1 11 12
M  V30 15 1 4 14
M  V30 16 1 6 15
M  V30 17 1 6 16
M  V30 18 1 6 17
M  V30 19 1 12 18
M  V30 20 1 13 19
M  V30 21 1 13 20
M  V30 22 1 13 21
M  V30 END BOND
M  V30 END CTAB
M  END
>  <level_0>
610

>  <index>
610

>  <NO.>
611

>  <Name>
paraxanthine

>  <SMILES>
Cn1c(=O)[nH]c2ncn(C)c2c1=O

>  <logBB>
0.1

>  <Class>
1

>  <MW>
180.06

>  <nHBAcc>
3

>  <nHBDon>
1

>  <SLogP>
-1.04

>  <TopoPSA>
72.68

>  <MMFF94 Energy>
-138.75

$$$$
c1cc(CN2CCCCC2)cc(OCCCNc2nc3ccccc3s2)c1
Actelion Java MolfileCreator 2.0

  0  0  0  0  0  0              0 V3000
M  V30 BEGIN CTAB
M  V30 COUNTS 54 57 0 0 0
M  V30 BEGIN ATOM
M  V30 1 S -2.9677 1.1221 5.218 0
M  V30 2 C -2.9267 0.9769 3.5014 0
M  V30 3 C -4.5816 0.536 5.2488 0
M  V30 4 N -4.037 0.5233 2.9675 0
M  V30 5 N -1.8684 1.2878 2.7228 0
M  V30 6 C -4.9845 0.2678 3.9422 0
M  V30 7 C -5.4326 0.3273 6.3474 0
M  V30 8 C -0.5431 1.6334 3.1808 0
M  V30 9 C -6.2862 -0.2276 3.7222 0
M  V30 10 C -6.7189 -0.1647 6.1036 0
M  V30 11 C 0.3703 0.4061 3.2139 0
M  V30 12 C -7.1432 -0.4398 4.8073 0
M  V30 13 C 0.8415 -0.0217 1.822 0
M  V30 14 O -0.2828 -0.4155 1.0386 0
M  V30 15 C -0.0496 -0.7622 -0.2624 0
M  V30 16 C 1.1991 -0.8444 -0.8794 0
M  V30 17 C -1.198 -1.0544 -1.001 0
M  V30 18 C 1.3076 -1.2027 -2.2356 0
M  V30 19 C -1.1052 -1.4163 -2.3447 0
M  V30 20 C 0.1431 -1.4905 -2.9606 0
M  V30 21 C 2.669 -1.3018 -2.8951 0
M  V30 22 N 3.4672 -0.0695 -2.7746 0
M  V30 23 C 2.9083 1.0626 -3.5319 0
M  V30 24 C 4.8731 -0.2937 -3.1424 0
M  V30 25 C 3.068 0.9428 -5.05 0
M  V30 26 C 5.1057 -0.4711 -4.645 0
M  V30 27 C 4.5222 0.6947 -5.436 0
M  V30 28 H -1.9495 1.0453 1.738 0
M  V30 29 H -5.1017 0.5422 7.3589 0
M  V30 30 H -0.5633 2.1058 4.169 0
M  V30 31 H -0.1243 2.3868 2.5029 0
M  V30 32 H -6.6109 -0.4401 2.7086 0
M  V30 33 H -7.395 -0.3338 6.9393 0
M  V30 34 H -0.1462 -0.4298 3.701 0
M  V30 35 H 1.2557 0.6439 3.8153 0
M  V30 36 H -8.1462 -0.8221 4.6327 0
M  V30 37 H 1.3654 0.8161 1.3456 0
M  V30 38 H 1.5293 -0.8686 1.9323 0
M  V30 39 H 2.1146 -0.6289 -0.3367 0
M  V30 40 H -2.174 -0.9988 -0.5237 0
M  V30 41 H -2.007 -1.6403 -2.9081 0
M  V30 42 H 0.201 -1.7736 -4.0088 0
M  V30 43 H 2.5586 -1.6105 -3.9412 0
M  V30 44 H 3.1886 -2.1276 -2.3902 0
M  V30 45 H 3.4172 1.9767 -3.1974 0
M  V30 46 H 1.8524 1.2218 -3.2848 0
M  V30 47 H 5.2754 -1.1585 -2.6006 0
M  V30 48 H 5.4607 0.5653 -2.7921 0
M  V30 49 H 2.7158 1.8639 -5.5287 0
M  V30 50 H 2.44 0.1305 -5.4342 0
M  V30 51 H 4.6575 -1.4109 -4.9885 0
M  V30 52 H 6.1812 -0.5451 -4.8431 0
M  V30 53 H 4.5975 0.4957 -6.5107 0
M  V30 54 H 5.11 1.5992 -5.2357 0
M  V30 END ATOM
M  V30 BEGIN BOND
M  V30 1 1 1 2
M  V30 2 1 1 3
M  V30 3 2 2 4
M  V30 4 1 2 5
M  V30 5 2 3 6
M  V30 6 1 3 7
M  V30 7 1 5 8
M  V30 8 1 6 9
M  V30 9 2 7 10
M  V30 10 1 8 11
M  V30 11 2 9 12
M  V30 12 1 11 13
M  V30 13 1 13 14
M  V30 14 1 14 15
M  V30 15 2 15 16
M  V30 16 1 15 17
M  V30 17 1 16 18
M  V30 18 2 17 19
M  V30 19 2 18 20
M  V30 20 1 18 21
M  V30 21 1 21 22
M  V30 22 1 22 23
M  V30 23 1 22 24
M  V30 24 1 23 25
M  V30 25 1 24 26
M  V30 26 1 25 27
M  V30 27 1 4 6
M  V30 28 1 10 12
M  V30 29 1 19 20
M  V30 30 1 26 27
M  V30 31 1 5 28
M  V30 32 1 7 29
M  V30 33 1 8 30
M  V30 34 1 8 31
M  V30 35 1 9 32
M  V30 36 1 10 33
M  V30 37 1 11 34
M  V30 38 1 11 35
M  V30 39 1 12 36
M  V30 40 1 13 37
M  V30 41 1 13 38
M  V30 42 1 16 39
M  V30 43 1 17 40
M  V30 44 1 19 41
M  V30 45 1 20 42
M  V30 46 1 21 43
M  V30 47 1 21 44
M  V30 48 1 23 45
M  V30 49 1 23 46
M  V30 50 1 24 47
M  V30 51 1 24 48
M  V30 52 1 25 49
M  V30 53 1 25 50
M  V30 54 1 26 51
M  V30 55 1 26 52
M  V30 56 1 27 53
M  V30 57 1 27 54
M  V30 END BOND
M  V30 END CTAB
M  END
>  <level_0>
619

>  <index>
619

>  <NO.>
620

>  <Name>
zolantidine; 41

>  <SMILES>
c1cc(CN2CCCCC2)cc(OCCCNc2nc3ccccc3s2)c1

>  <logBB>
0.1

>  <Class>
1

>  <MW>
381.19

>  <nHBAcc>
5

>  <nHBDon>
1

>  <SLogP>
5.16

>  <TopoPSA>
37.39

>  <MMFF94 Energy>
8.7063

$$$$
O=c1cc(NC2CCN(C/C=C/c3ccccc3)CC2)c2cc(Cl)ccc2o1
Actelion Java MolfileCreator 2.0

  0  0  0  0  0  0              0 V3000
M  V30 BEGIN CTAB
M  V30 COUNTS 51 54 0 0 0
M  V30 BEGIN ATOM
M  V30 1 Cl 4.3516 3.1414 4.6745 0
M  V30 2 C 4.4122 1.4243 4.5623 0
M  V30 3 C 3.472 0.7501 3.7739 0
M  V30 4 C 5.3928 0.7248 5.2602 0
M  V30 5 C 3.5006 -0.6491 3.6592 0
M  V30 6 C 5.4268 -0.6628 5.1782 0
M  V30 7 C 2.5482 -1.4338 2.8383 0
M  V30 8 C 4.4826 -1.3264 4.3895 0
M  V30 9 N 1.6372 -0.7562 2.0441 0
M  V30 10 C 2.6447 -2.7695 2.9081 0
M  V30 11 O 4.5664 -2.7294 4.3928 0
M  V30 12 C 0.5526 -1.3094 1.2369 0
M  V30 13 C 3.6442 -3.4904 3.7041 0
M  V30 14 C -0.5855 -0.2889 1.1511 0
M  V30 15 C 1.0634 -1.6565 -0.1615 0
M  V30 16 O 3.6583 -4.7161 3.7286 0
M  V30 17 C -1.6753 -0.7724 0.1936 0
M  V30 18 C -0.0911 -2.1006 -1.0589 0
M  V30 19 N -1.184 -1.1211 -1.1471 0
M  V30 20 C -0.8158 0.0364 -1.974 0
M  V30 21 C -2.0187 0.804 -2.4467 0
M  V30 22 C -2.3678 0.931 -3.738 0
M  V30 23 C -3.5313 1.6991 -4.2005 0
M  V30 24 C -4.76 1.6663 -3.5282 0
M  V30 25 C -3.4277 2.4448 -5.3816 0
M  V30 26 C -5.8549 2.3867 -4.0128 0
M  V30 27 C -4.5222 3.166 -5.8658 0
M  V30 28 C -5.7346 3.1387 -5.1796 0
M  V30 29 H 2.7146 1.3417 3.2707 0
M  V30 30 H 6.1203 1.2509 5.8724 0
M  V30 31 H 6.1753 -1.2272 5.728 0
M  V30 32 H 1.832 0.2243 1.8724 0
M  V30 33 H 1.9902 -3.4215 2.3447 0
M  V30 34 H 0.1521 -2.2119 1.7161 0
M  V30 35 H -0.2052 0.6885 0.8292 0
M  V30 36 H -1.0177 -0.1331 2.1476 0
M  V30 37 H 1.579 -0.7953 -0.6056 0
M  V30 38 H 1.8065 -2.4607 -0.1034 0
M  V30 39 H -2.1501 -1.6645 0.6237 0
M  V30 40 H -2.4762 -0.0268 0.1425 0
M  V30 41 H -0.5019 -3.0424 -0.6715 0
M  V30 42 H 0.2878 -2.3437 -2.0592 0
M  V30 43 H -0.2632 -0.3098 -2.8575 0
M  V30 44 H -0.1413 0.7205 -1.4466 0
M  V30 45 H -2.6027 1.3063 -1.681 0
M  V30 46 H -1.772 0.4604 -4.5164 0
M  V30 47 H -4.8805 1.0688 -2.6278 0
M  V30 48 H -2.49 2.4774 -5.9313 0
M  V30 49 H -6.8026 2.3543 -3.4817 0
M  V30 50 H -4.4276 3.7469 -6.7795 0
M  V30 51 H -6.5868 3.6977 -5.5572 0
M  V30 END ATOM
M  V30 BEGIN BOND
M  V30 1 1 1 2
M  V30 2 2 2 3
M  V30 3 1 2 4
M  V30 4 1 3 5
M  V30 5 2 4 6
M  V30 6 1 5 7
M  V30 7 2 5 8
M  V30 8 1 7 9
M  V30 9 2 7 10
M  V30 10 1 8 11
M  V30 11 1 9 12
M  V30 12 1 10 13
M  V30 13 1 12 14
M  V30 14 1 12 15
M  V30 15 2 13 16
M  V30 16 1 14 17
M  V30 17 1 15 18
M  V30 18 1 17 19
M  V30 19 1 19 20
M  V30 20 1 20 21
M  V30 21 2 21 22
M  V30 22 1 22 23
M  V30 23 2 23 24
M  V30 24 1 23 25
M  V30 25 1 24 26
M  V30 26 2 25 27
M  V30 27 2 26 28
M  V30 28 1 6 8
M  V30 29 1 11 13
M  V30 30 1 18 19
M  V30 31 1 27 28
M  V30 32 1 3 29
M  V30 33 1 4 30
M  V30 34 1 6 31
M  V30 35 1 9 32
M  V30 36 1 10 33
M  V30 37 1 12 34
M  V30 38 1 14 35
M  V30 39 1 14 36
M  V30 40 1 15 37
M  V30 41 1 15 38
M  V30 42 1 17 39
M  V30 43 1 17 40
M  V30 44 1 18 41
M  V30 45 1 18 42
M  V30 46 1 20 43
M  V30 47 1 20 44
M  V30 48 1 21 45
M  V30 49 1 22 46
M  V30 50 1 24 47
M  V30 51 1 25 48
M  V30 52 1 26 49
M  V30 53 1 27 50
M  V30 54 1 28 51
M  V30 END BOND
M  V30 END CTAB
M  END
>  <level_0>
637

>  <index>
637

>  <NO.>
638

>  <Name>
mchr antagonist 2'

>  <SMILES>
O=c1cc(NC2CCN(C/C=C/c3ccccc3)CC2)c2cc(Cl)ccc2o1

>  <logBB>
0.13

>  <Class>
1

>  <MW>
394.14

>  <nHBAcc>
4

>  <nHBDon>
1

>  <SLogP>
5.04

>  <TopoPSA>
45.48

>  <MMFF94 Energy>
41.446

$$$$
CNCc1ccc(NC(=O)c2cc(C)n(Cc3cc(Cl)ccc3OCc3ccccc3)n2)cc1
Actelion Java MolfileCreator 2.0

  0  0  0  0  0  0              0 V3000
M  V30 BEGIN CTAB
M  V30 COUNTS 61 64 0 0 0
M  V30 BEGIN ATOM
M  V30 1 Cl -6.0819 -4.3985 1.5977 0
M  V30 2 C -4.5108 -4.1239 0.9528 0
M  V30 3 C -4.3685 -3.4291 -0.2488 0
M  V30 4 C -3.393 -4.6069 1.6257 0
M  V30 5 C -3.093 -3.1979 -0.7946 0
M  V30 6 C -2.1212 -4.3843 1.098 0
M  V30 7 C -1.9709 -3.6638 -0.092 0
M  V30 8 C -2.9543 -2.4452 -2.0962 0
M  V30 9 O -0.7287 -3.4724 -0.6389 0
M  V30 10 N -3.0844 -1.0014 -1.9081 0
M  V30 11 C 0.1267 -2.7109 0.2253 0
M  V30 12 N -2.052 -0.3086 -1.3694 0
M  V30 13 C -4.14 -0.1975 -2.2701 0
M  V30 14 C 1.3652 -2.2864 -0.5306 0
M  V30 15 C -2.4878 0.9665 -1.3244 0
M  V30 16 C -3.7859 1.0751 -1.8777 0
M  V30 17 C -5.3727 -0.6766 -2.9412 0
M  V30 18 C 1.2687 -1.7011 -1.8017 0
M  V30 19 C 2.6329 -2.4175 0.0556 0
M  V30 20 C -1.6664 2.0604 -0.7704 0
M  V30 21 C 2.4122 -1.2704 -2.4763 0
M  V30 22 C 3.7764 -1.9873 -0.6207 0
M  V30 23 O -2.0906 3.2096 -0.7099 0
M  V30 24 N -0.4212 1.6182 -0.3677 0
M  V30 25 C 3.6657 -1.4143 -1.8859 0
M  V30 26 C 0.6222 2.3588 0.2111 0
M  V30 27 C 1.8518 1.7143 0.3764 0
M  V30 28 C 0.4918 3.6796 0.641 0
M  V30 29 C 2.9369 2.381 0.9523 0
M  V30 30 C 1.5771 4.3495 1.2198 0
M  V30 31 C 2.8123 3.7091 1.3769 0
M  V30 32 C 3.9847 4.4271 2.0013 0
M  V30 33 N 4.3017 3.8641 3.3138 0
M  V30 34 C 5.3812 4.6019 3.952 0
M  V30 35 H -5.2575 -3.0696 -0.7603 0
M  V30 36 H -3.504 -5.1629 2.5527 0
M  V30 37 H -1.2563 -4.7936 1.6124 0
M  V30 38 H -3.7206 -2.778 -2.804 0
M  V30 39 H -1.9896 -2.6215 -2.5837 0
M  V30 40 H 0.4211 -3.3285 1.0819 0
M  V30 41 H -0.3834 -1.8107 0.5922 0
M  V30 42 H -4.3702 1.9799 -1.9829 0
M  V30 43 H -6.0501 0.1577 -3.1516 0
M  V30 44 H -5.9109 -1.3896 -2.3106 0
M  V30 45 H -5.1344 -1.1584 -3.8945 0
M  V30 46 H 0.297 -1.5749 -2.2736 0
M  V30 47 H 2.7409 -2.8548 1.0458 0
M  V30 48 H 2.3228 -0.8193 -3.4612 0
M  V30 49 H 4.7542 -2.0966 -0.1583 0
M  V30 50 H -0.2631 0.6297 -0.5489 0
M  V30 51 H 4.5557 -1.0778 -2.4111 0
M  V30 52 H 1.9872 0.6854 0.0572 0
M  V30 53 H -0.4459 4.2184 0.5475 0
M  V30 54 H 3.8824 1.8569 1.0766 0
M  V30 55 H 1.4434 5.3782 1.5467 0
M  V30 56 H 3.755 5.4965 2.0901 0
M  V30 57 H 4.8454 4.3384 1.3267 0
M  V30 58 H 3.4658 3.9088 3.8962 0
M  V30 59 H 5.11 5.6496 4.1182 0
M  V30 60 H 6.2973 4.5596 3.354 0
M  V30 61 H 5.6031 4.154 4.9256 0
M  V30 END ATOM
M  V30 BEGIN BOND
M  V30 1 1 1 2
M  V30 2 2 2 3
M  V30 3 1 2 4
M  V30 4 1 3 5
M  V30 5 2 4 6
M  V30 6 2 5 7
M  V30 7 1 5 8
M  V30 8 1 7 9
M  V30 9 1 8 10
M  V30 10 1 9 11
M  V30 11 1 10 12
M  V30 12 1 10 13
M  V30 13 1 11 14
M  V30 14 2 12 15
M  V30 15 2 13 16
M  V30 16 1 13 17
M  V30 17 2 14 18
M  V30 18 1 14 19
M  V30 19 1 15 20
M  V30 20 1 18 21
M  V30 21 2 19 22
M  V30 22 2 20 23
M  V30 23 1 20 24
M  V30 24 2 21 25
M  V30 25 1 24 26
M  V30 26 2 26 27
M  V30 27 1 26 28
M  V30 28 1 27 29
M  V30 29 2 28 30
M  V30 30 2 29 31
M  V30 31 1 31 32
M  V30 32 1 32 33
M  V30 33 1 33 34
M  V30 34 1 6 7
M  V30 35 1 15 16
M  V30 36 1 22 25
M  V30 37 1 30 31
M  V30 38 1 3 35
M  V30 39 1 4 36
M  V30 40 1 6 37
M  V30 41 1 8 38
M  V30 42 1 8 39
M  V30 43 1 11 40
M  V30 44 1 11 41
M  V30 45 1 16 42
M  V30 46 1 17 43
M  V30 47 1 17 44
M  V30 48 1 17 45
M  V30 49 1 18 46
M  V30 50 1 19 47
M  V30 51 1 21 48
M  V30 52 1 22 49
M  V30 53 1 24 50
M  V30 54 1 25 51
M  V30 55 1 27 52
M  V30 56 1 28 53
M  V30 57 1 29 54
M  V30 58 1 30 55
M  V30 59 1 32 56
M  V30 60 1 32 57
M  V30 61 1 33 58
M  V30 62 1 34 59
M  V30 63 1 34 60
M  V30 64 1 34 61
M  V30 END BOND
M  V30 END CTAB
M  END
>  <level_0>
639

>  <index>
639

>  <NO.>
640

>  <Name>
compound-10b

>  <SMILES>
CNCc1ccc(NC(=O)c2cc(C)n(Cc3cc(Cl)ccc3OCc3ccccc3)n2)cc1

>  <logBB>
0.15

>  <Class>
1

>  <MW>
474.18

>  <nHBAcc>
4

>  <nHBDon>
2

>  <SLogP>
5.44

>  <TopoPSA>
68.18

>  <MMFF94 Energy>
101.14

$$$$
OC[C@H]1OC(OC2=C(c3ccc(O)c(O)c3)OC3C=C(O)C=C(O)C3=C2)[C@H](O)[C@@H](O)[C@@H]1O
Actelion Java MolfileCreator 2.0

  0  0  0  0  0  0              0 V3000
M  V30 BEGIN CTAB
M  V30 COUNTS 54 57 0 0 0
M  V30 BEGIN ATOM
M  V30 1 O 2.4074 -0.5613 -1.6044 0
M  V30 2 C 1.098 -0.1105 -1.4409 0
M  V30 3 C 2.5249 -1.9788 -1.8382 0
M  V30 4 C 0.1279 -0.9136 -0.9415 0
M  V30 5 C 0.9186 1.3116 -1.8148 0
M  V30 6 C 1.6157 -2.8039 -0.938 0
M  V30 7 C 3.9833 -2.3447 -1.7136 0
M  V30 8 O -1.188 -0.5659 -0.7397 0
M  V30 9 C 0.4421 -2.272 -0.5609 0
M  V30 10 C -0.2717 1.7785 -2.3927 0
M  V30 11 C 1.9601 2.2335 -1.5916 0
M  V30 12 C 2.1008 -4.1059 -0.5138 0
M  V30 13 C 4.3662 -3.4967 -1.1459 0
M  V30 14 C -1.3921 0.2166 0.4506 0
M  V30 15 C -0.43 3.1324 -2.6688 0
M  V30 16 C 1.8098 3.5874 -1.9101 0
M  V30 17 O 1.1566 -4.9574 0.0132 0
M  V30 18 C 3.3994 -4.4317 -0.6232 0
M  V30 19 O 5.6706 -3.8988 -1.0375 0
M  V30 20 O -1.2197 -0.6058 1.6151 0
M  V30 21 C -2.8355 0.7643 0.4052 0 CFG=2
M  V30 22 O -1.6158 3.6247 -3.1417 0
M  V30 23 C 0.6089 4.0265 -2.4414 0
M  V30 24 C -1.406 0.1193 2.8404 0 CFG=1
M  V30 25 O -3.0578 1.6691 -0.6942 0
M  V30 26 C -3.1419 1.5054 1.7071 0 CFG=2
M  V30 27 O 0.4452 5.3505 -2.728 0
M  V30 28 C -2.8476 0.636 2.9331 0 CFG=2
M  V30 29 C -1.0705 -0.8462 3.9807 0
M  V30 30 O -4.5237 1.9027 1.7037 0
M  V30 31 O -3.0728 1.4377 4.0961 0
M  V30 32 O 0.2778 -1.2943 3.8527 0
M  V30 33 H 2.2393 -2.1577 -2.885 0
M  V30 34 H 4.7016 -1.6531 -2.1376 0
M  V30 35 H -0.2573 -2.8073 0.0724 0
M  V30 36 H -1.0827 1.0893 -2.6104 0
M  V30 37 H 2.9002 1.9019 -1.1548 0
M  V30 38 H -0.6815 1.0525 0.4793 0
M  V30 39 H 2.618 4.2898 -1.7317 0
M  V30 40 H 1.603 -5.7804 0.2744 0
M  V30 41 H 3.7747 -5.3967 -0.3006 0
M  V30 42 H 6.2372 -3.1906 -1.3881 0
M  V30 43 H -3.5438 -0.0623 0.2681 0
M  V30 44 H -2.2929 2.9445 -2.9611 0
M  V30 45 H -0.6855 0.9474 2.8714 0
M  V30 46 H -3.9308 2.0704 -0.5014 0
M  V30 47 H -2.5686 2.4404 1.7526 0
M  V30 48 H -0.4598 5.4081 -3.0947 0
M  V30 49 H -3.5641 -0.1946 2.9588 0
M  V30 50 H -1.1739 -0.3678 4.9586 0
M  V30 51 H -1.7134 -1.7322 3.9504 0
M  V30 52 H -4.6817 2.2797 2.5931 0
M  V30 53 H -3.1272 0.8477 4.8695 0
M  V30 54 H 0.3778 -1.5889 2.9254 0
M  V30 END ATOM
M  V30 BEGIN BOND
M  V30 1 1 1 2
M  V30 2 1 1 3
M  V30 3 2 2 4
M  V30 4 1 2 5
M  V30 5 1 3 6
M  V30 6 1 3 7
M  V30 7 1 4 8
M  V30 8 1 4 9
M  V30 9 2 5 10
M  V30 10 1 5 11
M  V30 11 1 6 12
M  V30 12 2 7 13
M  V30 13 1 8 14
M  V30 14 1 10 15
M  V30 15 2 11 16
M  V30 16 1 12 17
M  V30 17 2 12 18
M  V30 18 1 13 19
M  V30 19 1 14 20
M  V30 20 1 14 21
M  V30 21 1 15 22
M  V30 22 2 15 23
M  V30 23 1 20 24
M  V30 24 1 21 25
M  V30 25 1 21 26
M  V30 26 1 23 27
M  V30 27 1 24 28
M  V30 28 1 24 29
M  V30 29 1 26 30
M  V30 30 1 28 31
M  V30 31 1 29 32
M  V30 32 2 6 9
M  V30 33 1 13 18
M  V30 34 1 16 23
M  V30 35 1 26 28
M  V30 36 1 3 33
M  V30 37 1 7 34
M  V30 38 1 9 35
M  V30 39 1 10 36
M  V30 40 1 11 37
M  V30 41 1 14 38
M  V30 42 1 16 39
M  V30 43 1 17 40
M  V30 44 1 18 41
M  V30 45 1 19 42
M  V30 46 1 21 43
M  V30 47 1 22 44
M  V30 48 1 24 45
M  V30 49 1 25 46
M  V30 50 1 26 47
M  V30 51 1 27 48
M  V30 52 1 28 49
M  V30 53 1 29 50
M  V30 54 1 29 51
M  V30 55 1 30 52
M  V30 56 1 31 53
M  V30 57 1 32 54
M  V30 END BOND
M  V30 BEGIN COLLECTION
M  V30 MDLV30/STEABS ATOMS=(4 21 24 26 28)
M  V30 END COLLECTION
M  V30 END CTAB
M  END
>  <level_0>
640

>  <index>
640

>  <NO.>
641

>  <Name>
cyanidin 3-o-glucoside

>  <SMILES>
OC[C@H]1OC(OC2=C(c3ccc(O)c(O)c3)OC3C=C(O)C=C(O)C3=C2)[C@H](O)[C@@H](O)[C@@H]1O

>  <logBB>
0.15

>  <Class>
1

>  <MW>
450.12

>  <nHBAcc>
11

>  <nHBDon>
8

>  <SLogP>
-0.19

>  <TopoPSA>
189.53

>  <MMFF94 Energy>
112.86

$$$$
OC[C@H]1O[C@@H](Oc2cc3c(O)cc(O)cc3[o+]c2-c2ccc(O)c(O)c2)[C@H](O)[C@@H](O)[C@@H]1O
Actelion Java MolfileCreator 2.0

  0  0  0  0  0  0              0 V3000
M  V30 BEGIN CTAB
M  V30 COUNTS 53 56 0 0 0
M  V30 BEGIN ATOM
M  V30 1 O -1.4444 1.605 2.0868 0 CHG=1
M  V30 2 C -0.2867 1.1927 1.3468 0
M  V30 3 C -2.13 0.6088 2.8283 0
M  V30 4 C 0.1035 -0.1605 1.3456 0
M  V30 5 C 0.3769 2.3014 0.6357 0
M  V30 6 C -1.7008 -0.7268 2.8595 0
M  V30 7 C -3.2507 1.0299 3.5459 0
M  V30 8 O 1.1892 -0.5722 0.61 0
M  V30 9 C -0.573 -1.0966 2.1198 0
M  V30 10 C -0.4007 3.3892 0.179 0
M  V30 11 C 1.7698 2.3473 0.4104 0
M  V30 12 C -2.4411 -1.6324 3.6408 0
M  V30 13 C -3.9572 0.1107 4.305 0
M  V30 14 C 0.854 -1.4307 -0.5057 0 CFG=2
M  V30 15 C 0.1954 4.4505 -0.4958 0
M  V30 16 C 2.3606 3.4172 -0.2684 0
M  V30 17 O -2.0443 -2.9401 3.6829 0
M  V30 18 C -3.5615 -1.2211 4.3591 0
M  V30 19 O -5.0566 0.4619 5.0252 0
M  V30 20 O 2.0687 -2.0639 -0.9256 0
M  V30 21 C 0.2584 -0.6051 -1.6659 0 CFG=2
M  V30 22 O -0.5244 5.5137 -0.9604 0
M  V30 23 C 1.5664 4.4574 -0.7187 0
M  V30 24 C 1.8826 -2.9683 -2.0305 0 CFG=1
M  V30 25 O -1.0066 -0.0127 -1.3081 0
M  V30 26 C 0.0559 -1.503 -2.8835 0 CFG=2
M  V30 27 O 2.1513 5.4953 -1.3803 0
M  V30 28 C 1.3606 -2.2058 -3.2615 0 CFG=2
M  V30 29 C 3.2263 -3.6514 -2.3071 0
M  V30 30 O -0.4253 -0.6916 -3.9631 0
M  V30 31 O 1.0822 -3.079 -4.3561 0
M  V30 32 O 4.1886 -2.695 -2.7416 0
M  V30 33 H -3.5376 2.0736 3.4922 0
M  V30 34 H -0.222 -2.1289 2.1507 0
M  V30 35 H -1.4748 3.3939 0.3532 0
M  V30 36 H 2.4317 1.5599 0.7688 0
M  V30 37 H 0.1553 -2.2114 -0.1788 0
M  V30 38 H 3.4341 3.4432 -0.4397 0
M  V30 39 H -2.6297 -3.4536 4.2717 0
M  V30 40 H -4.1366 -1.9202 4.9636 0
M  V30 41 H -5.2574 1.4114 4.9453 0
M  V30 42 H 0.9266 0.2272 -1.9185 0
M  V30 43 H -1.4637 5.398 -0.7379 0
M  V30 44 H 1.171 -3.7494 -1.7328 0
M  V30 45 H -1.386 0.2651 -2.1737 0
M  V30 46 H -0.7372 -2.2363 -2.6906 0
M  V30 47 H 1.4223 6.1099 -1.5994 0
M  V30 48 H 2.0769 -1.4501 -3.6068 0
M  V30 49 H 3.6153 -4.1285 -1.4014 0
M  V30 50 H 3.1293 -4.4142 -3.085 0
M  V30 51 H -0.3638 -1.2565 -4.7621 0
M  V30 52 H 1.9351 -3.2755 -4.7921 0
M  V30 53 H 4.3729 -2.1206 -1.9746 0
M  V30 END ATOM
M  V30 BEGIN BOND
M  V30 1 2 1 2
M  V30 2 1 1 3
M  V30 3 1 2 4
M  V30 4 1 2 5
M  V30 5 1 3 6
M  V30 6 2 3 7
M  V30 7 1 4 8
M  V30 8 2 4 9
M  V30 9 2 5 10
M  V30 10 1 5 11
M  V30 11 2 6 12
M  V30 12 1 7 13
M  V30 13 1 8 14
M  V30 14 1 10 15
M  V30 15 2 11 16
M  V30 16 1 12 17
M  V30 17 1 12 18
M  V30 18 1 13 19
M  V30 19 1 14 20
M  V30 20 1 14 21
M  V30 21 1 15 22
M  V30 22 2 15 23
M  V30 23 1 20 24
M  V30 24 1 21 25
M  V30 25 1 21 26
M  V30 26 1 23 27
M  V30 27 1 24 28
M  V30 28 1 24 29
M  V30 29 1 26 30
M  V30 30 1 28 31
M  V30 31 1 29 32
M  V30 32 1 6 9
M  V30 33 2 13 18
M  V30 34 1 16 23
M  V30 35 1 26 28
M  V30 36 1 7 33
M  V30 37 1 9 34
M  V30 38 1 10 35
M  V30 39 1 11 36
M  V30 40 1 14 37
M  V30 41 1 16 38
M  V30 42 1 17 39
M  V30 43 1 18 40
M  V30 44 1 19 41
M  V30 45 1 21 42
M  V30 46 1 22 43
M  V30 47 1 24 44
M  V30 48 1 25 45
M  V30 49 1 26 46
M  V30 50 1 27 47
M  V30 51 1 28 48
M  V30 52 1 29 49
M  V30 53 1 29 50
M  V30 54 1 30 51
M  V30 55 1 31 52
M  V30 56 1 32 53
M  V30 END BOND
M  V30 BEGIN COLLECTION
M  V30 MDLV30/STEABS ATOMS=(5 14 21 24 26 28)
M  V30 END COLLECTION
M  V30 END CTAB
M  END
>  <level_0>
641

>  <index>
641

>  <NO.>
642

>  <Name>
cyanidin 3-o-glucoside

>  <SMILES>
OC[C@H]1O[C@@H](Oc2cc3c(O)cc(O)cc3[o+]c2-c2ccc(O)c(O)c2)[C@H](O)[C@@H](O)[C@@H]1O

>  <logBB>
0.15

>  <Class>
1

>  <MW>
449.11

>  <nHBAcc>
10

>  <nHBDon>
8

>  <SLogP>
0.38

>  <TopoPSA>
191.6

>  <MMFF94 Energy>
171.02

$$$$
CC(O)C(=O)O
Actelion Java MolfileCreator 2.0

  0  0  0  0  0  0              0 V3000
M  V30 BEGIN CTAB
M  V30 COUNTS 12 11 0 0 0
M  V30 BEGIN ATOM
M  V30 1 O 0.7609 1.5984 -0.9893 0
M  V30 2 C 0.8338 0.4735 -0.5255 0
M  V30 3 O 2.0372 -0.1305 -0.3731 0
M  V30 4 C -0.3167 -0.4417 -0.1034 0 CFG=1
M  V30 5 O 0.0952 -1.3995 0.8708 0
M  V30 6 C -1.4631 0.3628 0.4824 0
M  V30 7 H 2.6775 0.5504 -0.6723 0
M  V30 8 H -0.649 -0.9889 -0.9915 0
M  V30 9 H 1.0028 -1.6587 0.6169 0
M  V30 10 H -1.1391 0.911 1.3744 0
M  V30 11 H -1.8543 1.0873 -0.2386 0
M  V30 12 H -2.279 -0.298 0.7936 0
M  V30 END ATOM
M  V30 BEGIN BOND
M  V30 1 2 1 2
M  V30 2 1 2 3
M  V30 3 1 2 4
M  V30 4 1 4 5
M  V30 5 1 4 6
M  V30 6 1 3 7
M  V30 7 1 4 8
M  V30 8 1 5 9
M  V30 9 1 6 10
M  V30 10 1 6 11
M  V30 11 1 6 12
M  V30 END BOND
M  V30 BEGIN COLLECTION
M  V30 MDLV30/STERAC1 ATOMS=(1 4)
M  V30 END COLLECTION
M  V30 END CTAB
M  END
>  <level_0>
643

>  <index>
643

>  <NO.>
644

>  <Name>
lactic acid

>  <SMILES>
CC(O)C(=O)O

>  <logBB>
0.16

>  <Class>
1

>  <MW>
90.03

>  <nHBAcc>
2

>  <nHBDon>
2

>  <SLogP>
-0.55

>  <TopoPSA>
57.53

>  <MMFF94 Energy>
10.91

$$$$
N#Cc1cccc(-c2ccc3cc(O)ccc3c2Oc2ccc(OCCN3CCCCC3)cc2)c1
Actelion Java MolfileCreator 2.0

  0  0  0  0  0  0              0 V3000
M  V30 BEGIN CTAB
M  V30 COUNTS 63 67 0 0 0
M  V30 BEGIN ATOM
M  V30 1 O 3.3634 0.4799 0.5599 0
M  V30 2 C 3.7886 1.7855 0.3729 0
M  V30 3 C 2.0768 0.1789 0.1634 0
M  V30 4 C 4.7773 2.0247 -0.6151 0
M  V30 5 C 3.2845 2.8207 1.1917 0
M  V30 6 C 1.4127 -0.7868 0.9211 0
M  V30 7 C 1.442 0.7509 -0.9392 0
M  V30 8 C 5.2299 3.3509 -0.812 0
M  V30 9 C 5.3266 1.0028 -1.4205 0
M  V30 10 C 2.3092 2.5798 2.2658 0
M  V30 11 C 3.7519 4.1222 0.9656 0
M  V30 12 C 0.1016 -1.1565 0.6044 0
M  V30 13 C 0.1324 0.3785 -1.2532 0
M  V30 14 C 6.1996 3.6212 -1.7932 0
M  V30 15 C 4.7049 4.384 -0.022 0
M  V30 16 C 6.2893 1.2837 -2.3904 0
M  V30 17 C 0.9802 3.0166 2.1388 0
M  V30 18 C 2.6813 1.8965 3.4344 0
M  V30 19 C -0.546 -0.5703 -0.4831 0
M  V30 20 C 6.7175 2.5891 -2.5695 0
M  V30 21 C 0.0448 2.7661 3.1496 0
M  V30 22 C 1.7526 1.6497 4.4476 0
M  V30 23 O -1.8214 -0.8347 -0.8987 0
M  V30 24 O 7.6589 2.8219 -3.5279 0
M  V30 25 C -1.3097 3.2105 2.9999 0
M  V30 26 C 0.4349 2.0829 4.3052 0
M  V30 27 C -2.5662 -1.7972 -0.1438 0
M  V30 28 N -2.4048 3.5788 2.8877 0
M  V30 29 C -3.9709 -1.902 -0.7612 0
M  V30 30 N -4.8827 -2.798 -0.0258 0
M  V30 31 C -4.5264 -4.2215 -0.126 0
M  V30 32 C -6.2841 -2.5933 -0.4304 0
M  V30 33 C -4.7915 -4.8392 -1.5016 0
M  V30 34 C -6.6165 -3.1403 -1.821 0
M  V30 35 C -6.2337 -4.6114 -1.942 0
M  V30 36 H 1.9111 -1.2418 1.773 0
M  V30 37 H 1.9453 1.4814 -1.565 0
M  V30 38 H 5.0024 -0.0287 -1.2958 0
M  V30 39 H 3.3843 4.9474 1.5736 0
M  V30 40 H -0.3821 -1.9009 1.2276 0
M  V30 41 H -0.3639 0.8311 -2.1083 0
M  V30 42 H 6.5453 4.6401 -1.9431 0
M  V30 43 H 5.0429 5.4095 -0.1597 0
M  V30 44 H 6.7001 0.4849 -3.0012 0
M  V30 45 H 0.6699 3.5365 1.233 0
M  V30 46 H 3.705 1.5455 3.5553 0
M  V30 47 H 2.0578 1.1163 5.3446 0
M  V30 48 H 7.8647 3.7708 -3.5417 0
M  V30 49 H -0.2834 1.8826 5.098 0
M  V30 50 H -2.6544 -1.4689 0.8991 0
M  V30 51 H -2.0561 -2.765 -0.1941 0
M  V30 52 H -4.3872 -0.8851 -0.7618 0
M  V30 53 H -3.8827 -2.1756 -1.8194 0
M  V30 54 H -5.1123 -4.7711 0.623 0
M  V30 55 H -3.4823 -4.3879 0.1585 0
M  V30 56 H -6.5446 -1.5289 -0.3784 0
M  V30 57 H -6.9308 -3.0848 0.3084 0
M  V30 58 H -4.5875 -5.9155 -1.465 0
M  V30 59 H -4.1067 -4.4159 -2.2456 0
M  V30 60 H -6.0945 -2.5589 -2.5903 0
M  V30 61 H -7.6893 -3.0247 -2.0137 0
M  V30 62 H -6.3706 -4.9525 -2.9739 0
M  V30 63 H -6.9034 -5.2126 -1.3145 0
M  V30 END ATOM
M  V30 BEGIN BOND
M  V30 1 1 1 2
M  V30 2 1 1 3
M  V30 3 1 2 4
M  V30 4 2 2 5
M  V30 5 2 3 6
M  V30 6 1 3 7
M  V30 7 1 4 8
M  V30 8 2 4 9
M  V30 9 1 5 10
M  V30 10 1 5 11
M  V30 11 1 6 12
M  V30 12 2 7 13
M  V30 13 2 8 14
M  V30 14 1 8 15
M  V30 15 1 9 16
M  V30 16 2 10 17
M  V30 17 1 10 18
M  V30 18 2 12 19
M  V30 19 1 14 20
M  V30 20 1 17 21
M  V30 21 2 18 22
M  V30 22 1 19 23
M  V30 23 1 20 24
M  V30 24 1 21 25
M  V30 25 2 21 26
M  V30 26 1 23 27
M  V30 27 3 25 28
M  V30 28 1 27 29
M  V30 29 1 29 30
M  V30 30 1 30 31
M  V30 31 1 30 32
M  V30 32 1 31 33
M  V30 33 1 32 34
M  V30 34 1 33 35
M  V30 35 2 11 15
M  V30 36 1 13 19
M  V30 37 2 16 20
M  V30 38 1 22 26
M  V30 39 1 34 35
M  V30 40 1 6 36
M  V30 41 1 7 37
M  V30 42 1 9 38
M  V30 43 1 11 39
M  V30 44 1 12 40
M  V30 45 1 13 41
M  V30 46 1 14 42
M  V30 47 1 15 43
M  V30 48 1 16 44
M  V30 49 1 17 45
M  V30 50 1 18 46
M  V30 51 1 22 47
M  V30 52 1 24 48
M  V30 53 1 26 49
M  V30 54 1 27 50
M  V30 55 1 27 51
M  V30 56 1 29 52
M  V30 57 1 29 53
M  V30 58 1 31 54
M  V30 59 1 31 55
M  V30 60 1 32 56
M  V30 61 1 32 57
M  V30 62 1 33 58
M  V30 63 1 33 59
M  V30 64 1 34 60
M  V30 65 1 34 61
M  V30 66 1 35 62
M  V30 67 1 35 63
M  V30 END BOND
M  V30 END CTAB
M  END
>  <level_0>
650

>  <index>
650

>  <NO.>
651

>  <Name>
chembl243999

>  <SMILES>
N#Cc1cccc(-c2ccc3cc(O)ccc3c2Oc2ccc(OCCN3CCCCC3)cc2)c1

>  <logBB>
0.17

>  <Class>
1

>  <MW>
464.21

>  <nHBAcc>
5

>  <nHBDon>
1

>  <SLogP>
6.74

>  <TopoPSA>
65.72

>  <MMFF94 Energy>
109.93

$$$$
CC(=O)O[C@H]1C(=O)[C@@]2(C)[C@@H](O)C[C@H]3OC[C@@]3(OC(C)=O)[C@H]2[C@@H](OC(=O)c2ccccc2)[C@]2(O)C[C@H](OC(=O)[C@@H](O)[C@H](NC(=O)c3ccc(F)cc3)c3ccccc3)C(C)=C1C2(C)C
Actelion Java MolfileCreator 2.0

  0  0  0  0  0  0              0 V3000
M  V30 BEGIN CTAB
M  V30 COUNTS 113 119 0 0 0
M  V30 BEGIN ATOM
M  V30 1 F -8.6788 -2.7516 -6.5647 0
M  V30 2 C -7.7902 -2.4368 -5.6138 0
M  V30 3 C -8.2422 -2.0496 -4.3565 0
M  V30 4 C -6.4315 -2.4939 -5.9 0
M  V30 5 C -7.3198 -1.719 -3.3598 0
M  V30 6 C -5.5059 -2.1639 -4.9082 0
M  V30 7 C -5.9449 -1.7875 -3.6297 0
M  V30 8 C -4.918 -1.4405 -2.6096 0
M  V30 9 O -3.813 -1.0373 -2.9522 0
M  V30 10 N -5.2654 -1.6139 -1.2923 0
M  V30 11 C -4.3496 -1.2762 -0.2033 0 CFG=2
M  V30 12 C -4.7682 -2.0329 1.0527 0
M  V30 13 C -4.2568 0.2482 0.0673 0 CFG=2
M  V30 14 C -5.9767 -1.7524 1.7124 0
M  V30 15 C -3.9355 -3.0355 1.5742 0
M  V30 16 O -5.5328 0.8935 -0.105 0
M  V30 17 C -3.1832 0.9237 -0.784 0
M  V30 18 C -6.3381 -2.4529 2.8643 0
M  V30 19 C -4.2991 -3.7335 2.7272 0
M  V30 20 O -3.4208 1.8718 -1.525 0
M  V30 21 O -1.9511 0.3905 -0.5486 0
M  V30 22 C -5.4994 -3.4426 3.3711 0
M  V30 23 C -0.8805 0.9331 -1.3547 0 CFG=2
M  V30 24 C 0.145 -0.1655 -1.6064 0
M  V30 25 C -0.322 2.1622 -0.5991 0
M  V30 26 C 1.4757 0.1199 -1.6458 0
M  V30 27 C -0.4522 -1.537 -1.8195 0
M  V30 28 C 1.2277 2.3153 -0.5471 0 CFG=1
M  V30 29 C 1.9022 1.5974 -1.7604 0
M  V30 30 C 2.5391 -0.9445 -1.4668 0 CFG=1
M  V30 31 O 1.4573 3.7365 -0.7252 0
M  V30 32 C 1.7929 1.8957 0.8953 0 CFG=2
M  V30 33 C 3.4223 1.8968 -1.8636 0
M  V30 34 C 1.3925 2.1734 -3.1272 0
M  V30 35 O 3.3867 -0.9296 -2.6148 0
M  V30 36 C 3.3077 -0.7395 -0.1155 0
M  V30 37 O 3.2003 2.194 0.9931 0
M  V30 38 C 1.5125 0.4476 1.4635 0 CFG=1
M  V30 39 C 4.1317 -2.0555 -2.7786 0
M  V30 40 O 4.543 -0.6464 -0.1277 0
M  V30 41 C 2.5191 -0.7585 1.237 0 CFG=2
M  V30 42 C 3.5433 3.4583 1.353 0
M  V30 43 C 1.1423 0.5976 2.9907 0 CFG=1
M  V30 44 O 4.0402 -3.0715 -2.1032 0
M  V30 45 C 5.0715 -1.8838 -3.9315 0
M  V30 46 C 3.5612 -0.9048 2.3941 0 CFG=1
M  V30 47 C 1.7303 -2.1033 1.2063 0
M  V30 48 O 2.7411 4.345 1.6145 0
M  V30 49 C 5.0174 3.6529 1.3861 0
M  V30 50 O -0.2839 0.9209 3.1045 0
M  V30 51 C 1.7016 -0.4364 4.0414 0 CFG=1
M  V30 52 C 1.9603 1.6015 3.8854 0
M  V30 53 O 4.3059 0.2908 2.5734 0
M  V30 54 C 2.9498 -1.2632 3.7486 0
M  V30 55 C 5.5076 4.9044 1.7856 0
M  V30 56 C 5.9227 2.6469 1.0284 0
M  V30 57 C -1.1666 -0.111 3.06 0
M  V30 58 O 2.023 0.6418 4.9651 0
M  V30 59 C 6.8828 5.1436 1.8287 0
M  V30 60 C 7.2979 2.8888 1.0718 0
M  V30 61 O -0.9113 -1.2439 2.6828 0
M  V30 62 C -2.4988 0.3409 3.573 0
M  V30 63 C 7.7765 4.1355 1.4717 0
M  V30 64 H -9.3098 -1.9986 -4.1647 0
M  V30 65 H -6.1012 -2.7895 -6.8909 0
M  V30 66 H -7.6927 -1.3854 -2.3959 0
M  V30 67 H -4.4414 -2.2015 -5.1327 0
M  V30 68 H -6.1545 -2.0227 -1.0413 0
M  V30 69 H -3.3628 -1.6517 -0.4988 0
M  V30 70 H -3.9642 0.4388 1.1046 0
M  V30 71 H -6.644 -0.9774 1.3385 0
M  V30 72 H -2.9892 -3.2772 1.0932 0
M  V30 73 H -5.5138 1.2708 -1.0082 0
M  V30 74 H -7.2739 -2.2237 3.3681 0
M  V30 75 H -3.642 -4.5034 3.1239 0
M  V30 76 H -5.7804 -3.9868 4.2691 0
M  V30 77 H -1.2866 1.2212 -2.3318 0
M  V30 78 H -0.758 3.0514 -1.0777 0
M  V30 79 H -0.7274 2.2013 0.421 0
M  V30 80 H 0.2554 -2.2596 -2.2316 0
M  V30 81 H -0.8591 -1.9408 -0.8884 0
M  V30 82 H -1.2643 -1.4728 -2.5504 0
M  V30 83 H 2.0875 -1.9362 -1.4018 0
M  V30 84 H 1.5159 4.1753 0.1485 0
M  V30 85 H 1.2633 2.5767 1.5757 0
M  V30 86 H 3.8452 1.5159 -2.8008 0
M  V30 87 H 3.615 2.9764 -1.8579 0
M  V30 88 H 4.0178 1.4741 -1.064 0
M  V30 89 H 1.7639 1.5675 -3.9634 0
M  V30 90 H 0.3087 2.2194 -3.2297 0
M  V30 91 H 1.7509 3.1984 -3.2844 0
M  V30 92 H 0.5808 0.1339 0.9866 0
M  V30 93 H 4.5036 -1.7656 -4.8575 0
M  V30 94 H 5.7136 -1.0161 -3.7599 0
M  V30 95 H 5.7052 -2.771 -4.0175 0
M  V30 96 H 4.2862 -1.6894 2.1392 0
M  V30 97 H 1.2466 -2.3466 2.1532 0
M  V30 98 H 0.9311 -2.093 0.4664 0
M  V30 99 H 2.3924 -2.9411 0.9556 0
M  V30 100 H 0.9345 -1.0703 4.5016 0
M  V30 101 H 2.9576 1.9095 3.5772 0
M  V30 102 H 1.4082 2.4979 4.1879 0
M  V30 103 H 5.1533 0.0526 2.9913 0
M  V30 104 H 2.6891 -2.3279 3.7649 0
M  V30 105 H 3.6884 -1.1276 4.549 0
M  V30 106 H 4.8198 5.7006 2.064 0
M  V30 107 H 5.575 1.6661 0.7143 0
M  V30 108 H 7.2551 6.1168 2.1389 0
M  V30 109 H 7.9932 2.1017 0.7906 0
M  V30 110 H -2.431 0.5357 4.6461 0
M  V30 111 H -2.8176 1.2417 3.0428 0
M  V30 112 H -3.2402 -0.4433 3.4035 0
M  V30 113 H 8.8471 4.3217 1.5033 0
M  V30 END ATOM
M  V30 BEGIN BOND
M  V30 1 1 1 2
M  V30 2 2 2 3
M  V30 3 1 2 4
M  V30 4 1 3 5
M  V30 5 2 4 6
M  V30 6 2 5 7
M  V30 7 1 7 8
M  V30 8 2 8 9
M  V30 9 1 8 10
M  V30 10 1 10 11
M  V30 11 1 11 12
M  V30 12 1 11 13
M  V30 13 2 12 14
M  V30 14 1 12 15
M  V30 15 1 13 16
M  V30 16 1 13 17
M  V30 17 1 14 18
M  V30 18 2 15 19
M  V30 19 2 17 20
M  V30 20 1 17 21
M  V30 21 2 18 22
M  V30 22 1 21 23
M  V30 23 1 23 24
M  V30 24 1 23 25
M  V30 25 2 24 26
M  V30 26 1 24 27
M  V30 27 1 25 28
M  V30 28 1 26 29
M  V30 29 1 26 30
M  V30 30 1 28 31
M  V30 31 1 28 32
M  V30 32 1 29 33
M  V30 33 1 29 34
M  V30 34 1 30 35
M  V30 35 1 30 36
M  V30 36 1 32 37
M  V30 37 1 32 38
M  V30 38 1 35 39
M  V30 39 2 36 40
M  V30 40 1 36 41
M  V30 41 1 37 42
M  V30 42 1 38 43
M  V30 43 2 39 44
M  V30 44 1 39 45
M  V30 45 1 41 46
M  V30 46 1 41 47
M  V30 47 2 42 48
M  V30 48 1 42 49
M  V30 49 1 43 50
M  V30 50 1 43 51
M  V30 51 1 43 52
M  V30 52 1 46 53
M  V30 53 1 46 54
M  V30 54 2 49 55
M  V30 55 1 49 56
M  V30 56 1 50 57
M  V30 57 1 51 58
M  V30 58 1 55 59
M  V30 59 2 56 60
M  V30 60 2 57 61
M  V30 61 1 57 62
M  V30 62 2 59 63
M  V30 63 1 6 7
M  V30 64 1 19 22
M  V30 65 1 28 29
M  V30 66 1 38 41
M  V30 67 1 51 54
M  V30 68 1 52 58
M  V30 69 1 60 63
M  V30 70 1 3 64
M  V30 71 1 4 65
M  V30 72 1 5 66
M  V30 73 1 6 67
M  V30 74 1 10 68
M  V30 75 1 11 69
M  V30 76 1 13 70
M  V30 77 1 14 71
M  V30 78 1 15 72
M  V30 79 1 16 73
M  V30 80 1 18 74
M  V30 81 1 19 75
M  V30 82 1 22 76
M  V30 83 1 23 77
M  V30 84 1 25 78
M  V30 85 1 25 79
M  V30 86 1 27 80
M  V30 87 1 27 81
M  V30 88 1 27 82
M  V30 89 1 30 83
M  V30 90 1 31 84
M  V30 91 1 32 85
M  V30 92 1 33 86
M  V30 93 1 33 87
M  V30 94 1 33 88
M  V30 95 1 34 89
M  V30 96 1 34 90
M  V30 97 1 34 91
M  V30 98 1 38 92
M  V30 99 1 45 93
M  V30 100 1 45 94
M  V30 101 1 45 95
M  V30 102 1 46 96
M  V30 103 1 47 97
M  V30 104 1 47 98
M  V30 105 1 47 99
M  V30 106 1 51 100
M  V30 107 1 52 101
M  V30 108 1 52 102
M  V30 109 1 53 103
M  V30 110 1 54 104
M  V30 111 1 54 105
M  V30 112 1 55 106
M  V30 113 1 56 107
M  V30 114 1 59 108
M  V30 115 1 60 109
M  V30 116 1 62 110
M  V30 117 1 62 111
M  V30 118 1 62 112
M  V30 119 1 63 113
M  V30 END BOND
M  V30 BEGIN COLLECTION
M  V30 MDLV30/STEABS ATOMS=(11 11 13 23 28 30 32 38 41 43 46 51)
M  V30 END COLLECTION
M  V30 END CTAB
M  END
>  <level_0>
656

>  <index>
656

>  <NO.>
657

>  <Name>
4-fluoropaclitaxel

>  <SMILES>
CC(=O)O[C@H]1C(=O)[C@@]2(C)[C@@H](O)C[C@H]3OC[C@@]3(OC(C)=O)[C@H]2[C@@H](OC(=O)c2ccccc2)[C@]2(O)C[C@H](OC(=O)[C@@H](O)[C@H](NC(=O)c3ccc(F)cc3)c3ccccc3)C(C)=C1C2(C)C

>  <logBB>
0.19

>  <Class>
1

>  <MW>
871.32

>  <nHBAcc>
14

>  <nHBDon>
4

>  <SLogP>
3.87

>  <TopoPSA>
221.29

>  <MMFF94 Energy>
213.55

$$$$
CSc1ccc2c(c1)N(CCC1CCCCN1C)c1ccccc1S2
Actelion Java MolfileCreator 2.0

  0  0  0  0  0  0              0 V3000
M  V30 BEGIN CTAB
M  V30 COUNTS 51 54 0 0 0
M  V30 BEGIN ATOM
M  V30 1 S 0.7331 4.0781 -0.7331 0
M  V30 2 C 1.8444 2.7188 -1.0296 0
M  V30 3 C -0.0761 3.5732 0.7712 0
M  V30 4 C 1.7489 1.487 -0.3541 0
M  V30 5 C 2.8308 2.9182 -2.0098 0
M  V30 6 C 0.0016 2.2624 1.2804 0
M  V30 7 C -0.8313 4.5548 1.4378 0
M  V30 8 N 0.7364 1.245 0.614 0
M  V30 9 C 2.7174 0.5053 -0.6534 0
M  V30 10 C 3.7545 1.9184 -2.3076 0
M  V30 11 C -0.649 2.0063 2.5048 0
M  V30 12 C -1.4902 4.2628 2.6291 0
M  V30 13 C 0.0691 -0.0837 0.5351 0
M  V30 14 C 3.7152 0.7133 -1.6146 0
M  V30 15 C -1.3907 2.9887 3.1684 0
M  V30 16 C -0.9263 -0.1218 -0.6376 0
M  V30 17 S 4.9196 -0.5475 -1.9893 0
M  V30 18 C -1.7082 -1.4496 -0.7786 0 CFG=2
M  V30 19 C 5.7445 -0.664 -0.379 0
M  V30 20 N -2.4515 -1.8489 0.4416 0
M  V30 21 C -0.7461 -2.5739 -1.223 0
M  V30 22 C -3.1836 -3.1136 0.2319 0
M  V30 23 C -3.411 -0.8211 0.8687 0
M  V30 24 C -1.4754 -3.8949 -1.431 0
M  V30 25 C -2.258 -4.2558 -0.1785 0
M  V30 26 H 2.8884 3.8626 -2.5474 0
M  V30 27 H -0.9018 5.5618 1.0318 0
M  V30 28 H 2.7176 -0.4367 -0.1144 0
M  V30 29 H 4.5088 2.0978 -3.0698 0
M  V30 30 H -0.5627 1.0368 2.9873 0
M  V30 31 H -2.064 5.0321 3.1387 0
M  V30 32 H -0.4458 -0.3324 1.4666 0
M  V30 33 H 0.8044 -0.8849 0.4321 0
M  V30 34 H -1.8791 2.7548 4.111 0
M  V30 35 H -0.3891 0.0649 -1.5769 0
M  V30 36 H -1.6353 0.7106 -0.5475 0
M  V30 37 H -2.4322 -1.3012 -1.5936 0
M  V30 38 H 6.1175 0.3156 -0.0674 0
M  V30 39 H 6.5932 -1.3482 -0.4618 0
M  V30 40 H 5.0624 -1.0526 0.3817 0
M  V30 41 H -0.2456 -2.2908 -2.1568 0
M  V30 42 H 0.0399 -2.7283 -0.4745 0
M  V30 43 H -3.6847 -3.4069 1.1629 0
M  V30 44 H -3.9645 -2.9858 -0.5298 0
M  V30 45 H -2.9044 0.0947 1.1861 0
M  V30 46 H -3.9767 -1.1625 1.7436 0
M  V30 47 H -4.1251 -0.5697 0.0762 0
M  V30 48 H -0.7574 -4.6876 -1.6679 0
M  V30 49 H -2.1582 -3.8105 -2.2852 0
M  V30 50 H -1.5629 -4.4812 0.6401 0
M  V30 51 H -2.8461 -5.1629 -0.358 0
M  V30 END ATOM
M  V30 BEGIN BOND
M  V30 1 1 1 2
M  V30 2 1 1 3
M  V30 3 2 2 4
M  V30 4 1 2 5
M  V30 5 2 3 6
M  V30 6 1 3 7
M  V30 7 1 4 8
M  V30 8 1 4 9
M  V30 9 2 5 10
M  V30 10 1 6 11
M  V30 11 2 7 12
M  V30 12 1 8 13
M  V30 13 2 9 14
M  V30 14 2 11 15
M  V30 15 1 13 16
M  V30 16 1 14 17
M  V30 17 1 16 18
M  V30 18 1 17 19
M  V30 19 1 18 20
M  V30 20 1 18 21
M  V30 21 1 20 22
M  V30 22 1 20 23
M  V30 23 1 21 24
M  V30 24 1 22 25
M  V30 25 1 6 8
M  V30 26 1 10 14
M  V30 27 1 12 15
M  V30 28 1 24 25
M  V30 29 1 5 26
M  V30 30 1 7 27
M  V30 31 1 9 28
M  V30 32 1 10 29
M  V30 33 1 11 30
M  V30 34 1 12 31
M  V30 35 1 13 32
M  V30 36 1 13 33
M  V30 37 1 15 34
M  V30 38 1 16 35
M  V30 39 1 16 36
M  V30 40 1 18 37
M  V30 41 1 19 38
M  V30 42 1 19 39
M  V30 43 1 19 40
M  V30 44 1 21 41
M  V30 45 1 21 42
M  V30 46 1 22 43
M  V30 47 1 22 44
M  V30 48 1 23 45
M  V30 49 1 23 46
M  V30 50 1 23 47
M  V30 51 1 24 48
M  V30 52 1 24 49
M  V30 53 1 25 50
M  V30 54 1 25 51
M  V30 END BOND
M  V30 BEGIN COLLECTION
M  V30 MDLV30/STERAC1 ATOMS=(1 18)
M  V30 END COLLECTION
M  V30 END CTAB
M  END
>  <level_0>
660

>  <index>
660

>  <NO.>
661

>  <Name>
thioridazine

>  <SMILES>
CSc1ccc2c(c1)N(CCC1CCCCN1C)c1ccccc1S2

>  <logBB>
0.2

>  <Class>
1

>  <MW>
370.15

>  <nHBAcc>
4

>  <nHBDon>
0

>  <SLogP>
5.89

>  <TopoPSA>
6.48

>  <MMFF94 Energy>
67.192

$$$$
Clc1ccc(Nc2nnc(Cc3ccncc3)c3ccccc23)cc1
Actelion Java MolfileCreator 2.0

  0  0  0  0  0  0              0 V3000
M  V30 BEGIN CTAB
M  V30 COUNTS 40 43 0 0 0
M  V30 BEGIN ATOM
M  V30 1 Cl -1.2167 -1.379 7.3173 0
M  V30 2 C -0.7371 -0.626 5.8474 0
M  V30 3 C -0.63 -1.379 4.6835 0
M  V30 4 C -0.4497 0.7347 5.8275 0
M  V30 5 C -0.2367 -0.7638 3.4891 0
M  V30 6 C -0.0579 1.3438 4.6305 0
M  V30 7 C 0.0407 0.6081 3.4379 0
M  V30 8 N 0.4685 1.2629 2.27 0
M  V30 9 C 0.413 0.857 0.917 0
M  V30 10 N -0.4968 -0.0605 0.5334 0
M  V30 11 C 1.3102 1.4114 -0.0248 0
M  V30 12 N -0.5993 -0.4583 -0.7697 0
M  V30 13 C 1.2007 1.0106 -1.3789 0
M  V30 14 C 2.3256 2.3413 0.3201 0
M  V30 15 C 0.2156 0.0598 -1.7106 0
M  V30 16 C 2.0878 1.5783 -2.3284 0
M  V30 17 C 3.1881 2.881 -0.634 0
M  V30 18 C 0.0295 -0.4299 -3.1334 0
M  V30 19 C 3.0651 2.5032 -1.9608 0
M  V30 20 C -1.0542 -1.4603 -3.3594 0
M  V30 21 C -0.7732 -2.827 -3.2702 0
M  V30 22 C -2.3674 -1.0698 -3.6387 0
M  V30 23 C -1.8011 -3.7326 -3.4854 0
M  V30 24 C -3.3254 -2.0525 -3.8373 0
M  V30 25 N -3.0695 -3.3765 -3.7791 0
M  V30 26 H -0.8466 -2.4437 4.6906 0
M  V30 27 H -0.5262 1.3272 6.7351 0
M  V30 28 H -0.1479 -1.3833 2.6002 0
M  V30 29 H 0.1652 2.4077 4.6406 0
M  V30 30 H 0.5762 2.2633 2.3648 0
M  V30 31 H 2.4713 2.6452 1.3546 0
M  V30 32 H 2.0343 1.3026 -3.3795 0
M  V30 33 H 3.957 3.5897 -0.336 0
M  V30 34 H 0.9787 -0.8544 -3.4861 0
M  V30 35 H -0.1843 0.4334 -3.7773 0
M  V30 36 H 3.7337 2.9181 -2.7111 0
M  V30 37 H 0.2214 -3.1863 -3.0291 0
M  V30 38 H -2.6482 -0.0233 -3.6916 0
M  V30 39 H -1.6245 -4.8025 -3.4227 0
M  V30 40 H -4.3573 -1.7906 -4.053 0
M  V30 END ATOM
M  V30 BEGIN BOND
M  V30 1 1 1 2
M  V30 2 2 2 3
M  V30 3 1 2 4
M  V30 4 1 3 5
M  V30 5 2 4 6
M  V30 6 2 5 7
M  V30 7 1 7 8
M  V30 8 1 8 9
M  V30 9 2 9 10
M  V30 10 1 9 11
M  V30 11 1 10 12
M  V30 12 1 11 13
M  V30 13 2 11 14
M  V30 14 2 12 15
M  V30 15 2 13 16
M  V30 16 1 14 17
M  V30 17 1 15 18
M  V30 18 1 16 19
M  V30 19 1 18 20
M  V30 20 2 20 21
M  V30 21 1 20 22
M  V30 22 1 21 23
M  V30 23 2 22 24
M  V30 24 2 23 25
M  V30 25 1 6 7
M  V30 26 1 13 15
M  V30 27 2 17 19
M  V30 28 1 24 25
M  V30 29 1 3 26
M  V30 30 1 4 27
M  V30 31 1 5 28
M  V30 32 1 6 29
M  V30 33 1 8 30
M  V30 34 1 14 31
M  V30 35 1 16 32
M  V30 36 1 17 33
M  V30 37 1 18 34
M  V30 38 1 18 35
M  V30 39 1 19 36
M  V30 40 1 21 37
M  V30 41 1 22 38
M  V30 42 1 23 39
M  V30 43 1 24 40
M  V30 END BOND
M  V30 END CTAB
M  END
>  <level_0>
672

>  <index>
672

>  <NO.>
673

>  <Name>
ptk-787, vatalanib

>  <SMILES>
Clc1ccc(Nc2nnc(Cc3ccncc3)c3ccccc23)cc1

>  <logBB>
0.2

>  <Class>
1

>  <MW>
346.1

>  <nHBAcc>
4

>  <nHBDon>
1

>  <SLogP>
5.01

>  <TopoPSA>
50.7

>  <MMFF94 Energy>
90.783

$$$$
[Ne]
Actelion Java MolfileCreator 2.0

  0  0  0  0  0  0              0 V3000
M  V30 BEGIN CTAB
M  V30 COUNTS 1 0 0 0 0
M  V30 BEGIN ATOM
M  V30 1 Ne 0.0 0.0 0.0 0
M  V30 END ATOM
M  V30 BEGIN BOND
M  V30 END BOND
M  V30 END CTAB
M  END
>  <level_0>
674

>  <index>
674

>  <NO.>
675

>  <Name>
1/9/40

>  <SMILES>
[Ne]

>  <logBB>
0.2

>  <Class>
1

>  <MW>
19.99

>  <nHBAcc>
0

>  <nHBDon>
0

>  <SLogP>
0.0

>  <TopoPSA>
0.0

>  <MMFF94 Energy>
Couldn't assign an atom type to atom 0 (Ne)

$$$$
Cc1cccc(C)c1Nc1ncc(-c2ccc(OCCN3CCCC3)cc2)n2cncc12
Actelion Java MolfileCreator 2.0

  0  0  0  0  0  0              0 V3000
M  V30 BEGIN CTAB
M  V30 COUNTS 61 65 0 0 0
M  V30 BEGIN ATOM
M  V30 1 O -4.2197 -2.2275 -0.7951 0
M  V30 2 C -2.9636 -1.7076 -0.6604 0
M  V30 3 C -5.2611 -1.7494 0.0626 0
M  V30 4 C -2.0074 -2.2862 -1.4995 0
M  V30 5 C -2.5771 -0.6845 0.2046 0
M  V30 6 C -5.9297 -0.4995 -0.5331 0
M  V30 7 C -0.679 -1.8538 -1.4777 0
M  V30 8 C -1.247 -0.2472 0.2297 0
M  V30 9 N -7.0598 -0.0101 0.2651 0
M  V30 10 C -0.2909 -0.8266 -0.6128 0
M  V30 11 C -7.7804 1.0678 -0.4174 0
M  V30 12 C -6.6615 0.564 1.5521 0
M  V30 13 C 1.1005 -0.361 -0.5855 0
M  V30 14 C -8.648 1.6475 0.6876 0
M  V30 15 C -7.8832 1.3682 1.9762 0
M  V30 16 N 1.5064 0.844 -1.1436 0
M  V30 17 C 2.0565 -1.1018 0.0097 0
M  V30 18 C 2.8201 1.2437 -1.0762 0
M  V30 19 C 0.8298 1.8272 -1.8197 0
M  V30 20 N 3.3883 -0.7416 0.0895 0
M  V30 21 C 3.799 0.396 -0.4235 0
M  V30 22 C 2.8637 2.4683 -1.7005 0
M  V30 23 N 1.6207 2.8229 -2.1629 0
M  V30 24 N 5.1231 0.781 -0.3796 0
M  V30 25 C 6.1788 0.1276 0.2886 0
M  V30 26 C 6.1433 -0.1416 1.6752 0
M  V30 27 C 7.3118 -0.2745 -0.4622 0
M  V30 28 C 7.209 -0.8357 2.2746 0
M  V30 29 C 5.0033 0.2832 2.5623 0
M  V30 30 C 8.3701 -0.9457 0.1696 0
M  V30 31 C 7.399 -0.0203 -1.9442 0
M  V30 32 C 8.3152 -1.2307 1.5292 0
M  V30 33 H -4.9051 -1.6075 1.0889 0
M  V30 34 H -6.0057 -2.5532 0.1152 0
M  V30 35 H -2.3008 -3.0851 -2.1772 0
M  V30 36 H -3.2801 -0.1998 0.8733 0
M  V30 37 H -5.1869 0.2922 -0.6921 0
M  V30 38 H -6.2867 -0.7693 -1.5362 0
M  V30 39 H 0.0428 -2.324 -2.1422 0
M  V30 40 H -0.9655 0.548 0.9177 0
M  V30 41 H -8.3856 0.6972 -1.2508 0
M  V30 42 H -7.0951 1.8374 -0.7958 0
M  V30 43 H -6.4185 -0.203 2.2938 0
M  V30 44 H -5.7981 1.2334 1.4468 0
M  V30 45 H -9.6218 1.1442 0.719 0
M  V30 46 H -8.8279 2.7175 0.5433 0
M  V30 47 H -8.5123 0.7932 2.6655 0
M  V30 48 H -7.5923 2.2954 2.481 0
M  V30 49 H 1.8157 -2.0552 0.4756 0
M  V30 50 H -0.2294 1.7638 -2.0309 0
M  V30 51 H 3.715 3.1198 -1.8471 0
M  V30 52 H 5.4171 1.5355 -0.9812 0
M  V30 53 H 7.181 -1.0647 3.338 0
M  V30 54 H 4.2619 -0.5171 2.6402 0
M  V30 55 H 5.366 0.5122 3.571 0
M  V30 56 H 4.5223 1.1956 2.1971 0
M  V30 57 H 9.2399 -1.2644 -0.4002 0
M  V30 58 H 7.4176 1.0559 -2.1433 0
M  V30 59 H 6.5458 -0.4736 -2.4595 0
M  V30 60 H 8.3086 -0.4522 -2.3749 0
M  V30 61 H 9.1328 -1.7621 2.0088 0
M  V30 END ATOM
M  V30 BEGIN BOND
M  V30 1 1 1 2
M  V30 2 1 1 3
M  V30 3 2 2 4
M  V30 4 1 2 5
M  V30 5 1 3 6
M  V30 6 1 4 7
M  V30 7 2 5 8
M  V30 8 1 6 9
M  V30 9 2 7 10
M  V30 10 1 9 11
M  V30 11 1 9 12
M  V30 12 1 10 13
M  V30 13 1 11 14
M  V30 14 1 12 15
M  V30 15 1 13 16
M  V30 16 2 13 17
M  V30 17 1 16 18
M  V30 18 1 16 19
M  V30 19 1 17 20
M  V30 20 1 18 21
M  V30 21 2 18 22
M  V30 22 2 19 23
M  V30 23 1 21 24
M  V30 24 1 24 25
M  V30 25 2 25 26
M  V30 26 1 25 27
M  V30 27 1 26 28
M  V30 28 1 26 29
M  V30 29 2 27 30
M  V30 30 1 27 31
M  V30 31 2 28 32
M  V30 32 1 8 10
M  V30 33 1 14 15
M  V30 34 2 20 21
M  V30 35 1 22 23
M  V30 36 1 30 32
M  V30 37 1 3 33
M  V30 38 1 3 34
M  V30 39 1 4 35
M  V30 40 1 5 36
M  V30 41 1 6 37
M  V30 42 1 6 38
M  V30 43 1 7 39
M  V30 44 1 8 40
M  V30 45 1 11 41
M  V30 46 1 11 42
M  V30 47 1 12 43
M  V30 48 1 12 44
M  V30 49 1 14 45
M  V30 50 1 14 46
M  V30 51 1 15 47
M  V30 52 1 15 48
M  V30 53 1 17 49
M  V30 54 1 19 50
M  V30 55 1 22 51
M  V30 56 1 24 52
M  V30 57 1 28 53
M  V30 58 1 29 54
M  V30 59 1 29 55
M  V30 60 1 29 56
M  V30 61 1 30 57
M  V30 62 1 31 58
M  V30 63 1 31 59
M  V30 64 1 31 60
M  V30 65 1 32 61
M  V30 END BOND
M  V30 END CTAB
M  END
>  <level_0>
684

>  <index>
684

>  <NO.>
685

>  <Name>
compound 14b

>  <SMILES>
Cc1cccc(C)c1Nc1ncc(-c2ccc(OCCN3CCCC3)cc2)n2cncc12

>  <logBB>
0.23

>  <Class>
1

>  <MW>
427.24

>  <nHBAcc>
5

>  <nHBDon>
1

>  <SLogP>
5.23

>  <TopoPSA>
54.69

>  <MMFF94 Energy>
64.476

$$$$
CCC(NC(=O)c1c(C)c(-c2ccccc2)cc2ccccc12)c1ccccc1
Actelion Java MolfileCreator 2.0

  0  0  0  0  0  0              0 V3000
M  V30 BEGIN CTAB
M  V30 COUNTS 54 57 0 0 0
M  V30 BEGIN ATOM
M  V30 1 O 2.5475 0.159 0.2386 0
M  V30 2 C 1.3499 -0.0668 0.3428 0
M  V30 3 N 0.6197 0.0705 1.4996 0
M  V30 4 C 0.5566 -0.4939 -0.8353 0
M  V30 5 C 1.2269 0.4851 2.7542 0 CFG=2
M  V30 6 C 0.0555 -1.8249 -0.8887 0
M  V30 7 C 0.3227 0.4498 -1.866 0
M  V30 8 C 0.4033 -0.0742 3.9028 0
M  V30 9 C 1.4028 2.0167 2.7942 0
M  V30 10 C -0.7097 -2.1943 -2.0148 0
M  V30 11 C 0.2808 -2.8119 0.1044 0
M  V30 12 C -0.4134 0.045 -2.9981 0
M  V30 13 C 0.8943 1.8449 -1.7661 0
M  V30 14 C -0.8694 0.43 4.2172 0
M  V30 15 C 0.9003 -1.1522 4.6526 0
M  V30 16 C 2.1707 2.4956 4.0196 0
M  V30 17 C -0.9283 -1.2643 -3.0423 0
M  V30 18 C -1.2382 -3.493 -2.112 0
M  V30 19 C -0.25 -4.0985 -0.0047 0
M  V30 20 C -0.6617 0.93 -4.1462 0
M  V30 21 C -1.614 -0.117 5.2641 0
M  V30 22 C 0.1543 -1.6978 5.6988 0
M  V30 23 C -1.0136 -4.4379 -1.1125 0
M  V30 24 C 0.3539 1.1985 -5.0769 0
M  V30 25 C -1.9228 1.5139 -4.3434 0
M  V30 26 C -1.1014 -1.179 6.0053 0
M  V30 27 C 0.1174 2.0336 -6.1709 0
M  V30 28 C -2.1594 2.3491 -5.4377 0
M  V30 29 C -1.1389 2.6087 -6.3501 0
M  V30 30 H -0.3714 -0.1346 1.486 0
M  V30 31 H 2.2304 0.0403 2.7876 0
M  V30 32 H 0.4335 2.5275 2.7495 0
M  V30 33 H 1.9524 2.3418 1.9018 0
M  V30 34 H 0.8879 -2.5897 0.9807 0
M  V30 35 H 0.3227 2.5686 -2.3547 0
M  V30 36 H 1.9312 1.8489 -2.1159 0
M  V30 37 H 0.8597 2.2194 -0.7379 0
M  V30 38 H -1.2944 1.2535 3.6481 0
M  V30 39 H 1.8767 -1.5756 4.4248 0
M  V30 40 H 1.6256 2.2855 4.9447 0
M  V30 41 H 3.152 2.0146 4.0794 0
M  V30 42 H 2.3278 3.5776 3.9644 0
M  V30 43 H -1.5014 -1.5666 -3.9198 0
M  V30 44 H -1.8295 -3.7826 -2.9787 0
M  V30 45 H -0.0598 -4.8323 0.7743 0
M  V30 46 H -2.5957 0.2854 5.5005 0
M  V30 47 H 0.5537 -2.5293 6.2737 0
M  V30 48 H -1.4271 -5.4385 -1.2054 0
M  V30 49 H 1.3392 0.7537 -4.9508 0
M  V30 50 H -2.7285 1.3227 -3.6377 0
M  V30 51 H -1.6814 -1.604 6.8202 0
M  V30 52 H 0.9144 2.2336 -6.8822 0
M  V30 53 H -3.1399 2.7971 -5.5764 0
M  V30 54 H -1.3227 3.2589 -7.2015 0
M  V30 END ATOM
M  V30 BEGIN BOND
M  V30 1 2 1 2
M  V30 2 1 2 3
M  V30 3 1 2 4
M  V30 4 1 3 5
M  V30 5 1 4 6
M  V30 6 2 4 7
M  V30 7 1 5 8
M  V30 8 1 5 9
M  V30 9 1 6 10
M  V30 10 2 6 11
M  V30 11 1 7 12
M  V30 12 1 7 13
M  V30 13 2 8 14
M  V30 14 1 8 15
M  V30 15 1 9 16
M  V30 16 1 10 17
M  V30 17 2 10 18
M  V30 18 1 11 19
M  V30 19 1 12 20
M  V30 20 1 14 21
M  V30 21 2 15 22
M  V30 22 1 18 23
M  V30 23 2 20 24
M  V30 24 1 20 25
M  V30 25 2 21 26
M  V30 26 1 24 27
M  V30 27 2 25 28
M  V30 28 2 27 29
M  V30 29 2 12 17
M  V30 30 2 19 23
M  V30 31 1 22 26
M  V30 32 1 28 29
M  V30 33 1 3 30
M  V30 34 1 5 31
M  V30 35 1 9 32
M  V30 36 1 9 33
M  V30 37 1 11 34
M  V30 38 1 13 35
M  V30 39 1 13 36
M  V30 40 1 13 37
M  V30 41 1 14 38
M  V30 42 1 15 39
M  V30 43 1 16 40
M  V30 44 1 16 41
M  V30 45 1 16 42
M  V30 46 1 17 43
M  V30 47 1 18 44
M  V30 48 1 19 45
M  V30 49 1 21 46
M  V30 50 1 22 47
M  V30 51 1 23 48
M  V30 52 1 24 49
M  V30 53 1 25 50
M  V30 54 1 26 51
M  V30 55 1 27 52
M  V30 56 1 28 53
M  V30 57 1 29 54
M  V30 END BOND
M  V30 BEGIN COLLECTION
M  V30 MDLV30/STERAC1 ATOMS=(1 5)
M  V30 END COLLECTION
M  V30 END CTAB
M  END
>  <level_0>
712

>  <index>
712

>  <NO.>
713

>  <Name>


>  <SMILES>
CCC(NC(=O)c1c(C)c(-c2ccccc2)cc2ccccc12)c1ccccc1

>  <logBB>
0.3

>  <Class>
1

>  <MW>
379.19

>  <nHBAcc>
1

>  <nHBDon>
1

>  <SLogP>
6.7

>  <TopoPSA>
29.1

>  <MMFF94 Energy>
66.416

$$$$
CCC(NC(=O)c1c(C)c(-c2ccccc2)nc2ccccc12)c1ccccc1
Actelion Java MolfileCreator 2.0

  0  0  0  0  0  0              0 V3000
M  V30 BEGIN CTAB
M  V30 COUNTS 53 56 0 0 0
M  V30 BEGIN ATOM
M  V30 1 O -2.3088 -1.114 0.5569 0
M  V30 2 C -1.2723 -0.7364 0.0295 0
M  V30 3 N -1.1923 -0.0554 -1.1622 0
M  V30 4 C 0.0297 -0.9692 0.6933 0
M  V30 5 C -2.3722 0.2638 -1.9496 0 CFG=2
M  V30 6 C 0.9559 -1.8695 0.1124 0
M  V30 7 C 0.3056 -0.2786 1.8878 0
M  V30 8 C -2.0227 0.469 -3.4155 0
M  V30 9 C -3.195 1.4228 -1.3488 0
M  V30 10 C 2.1775 -2.0141 0.7864 0
M  V30 11 C 0.7352 -2.6239 -1.0706 0
M  V30 12 C 1.5349 -0.5466 2.4885 0
M  V30 13 C -0.6904 0.6727 2.4924 0
M  V30 14 C -0.9719 1.3035 -3.8309 0
M  V30 15 C -2.7772 -0.1892 -4.4011 0
M  V30 16 C -2.4486 2.7386 -1.168 0
M  V30 17 N 2.4581 -1.3687 1.9265 0
M  V30 18 C 3.1395 -2.8671 0.2616 0
M  V30 19 C 1.7147 -3.4757 -1.5773 0
M  V30 20 C 1.9672 0.0241 3.7751 0
M  V30 21 C -0.6815 1.4677 -5.1872 0
M  V30 22 C -2.4857 -0.0245 -5.7567 0
M  V30 23 C 2.9242 -3.5945 -0.9103 0
M  V30 24 C 1.2601 -0.2279 4.9635 0
M  V30 25 C 3.1225 0.8201 3.8501 0
M  V30 26 C -1.4373 0.803 -6.1492 0
M  V30 27 C 1.6789 0.3189 6.1793 0
M  V30 28 C 3.5425 1.3675 5.065 0
M  V30 29 C 2.8177 1.1194 6.2281 0
M  V30 30 H -0.283 0.2122 -1.514 0
M  V30 31 H -3.0109 -0.6285 -1.889 0
M  V30 32 H -3.567 1.1173 -0.3628 0
M  V30 33 H -4.0813 1.6046 -1.9697 0
M  V30 34 H -0.2117 -2.5606 -1.604 0
M  V30 35 H -1.2528 1.2108 1.7227 0
M  V30 36 H -1.3932 0.1271 3.1295 0
M  V30 37 H -0.2017 1.4504 3.0874 0
M  V30 38 H -0.371 1.8444 -3.104 0
M  V30 39 H -3.6025 -0.8401 -4.1184 0
M  V30 40 H -1.5288 2.6061 -0.5908 0
M  V30 41 H -2.1978 3.1944 -2.1293 0
M  V30 42 H -3.0807 3.4513 -0.6277 0
M  V30 43 H 4.0857 -2.9747 0.7881 0
M  V30 44 H 1.5286 -4.0455 -2.4841 0
M  V30 45 H 0.1335 2.1187 -5.4931 0
M  V30 46 H -3.0791 -0.5423 -6.5059 0
M  V30 47 H 3.6984 -4.2565 -1.2888 0
M  V30 48 H 0.3787 -0.8661 4.9491 0
M  V30 49 H 3.7051 1.0104 2.9507 0
M  V30 50 H -1.2116 0.9323 -7.2043 0
M  V30 51 H 1.1196 0.1125 7.0881 0
M  V30 52 H 4.4389 1.9806 5.1018 0
M  V30 53 H 3.1463 1.5412 7.1743 0
M  V30 END ATOM
M  V30 BEGIN BOND
M  V30 1 2 1 2
M  V30 2 1 2 3
M  V30 3 1 2 4
M  V30 4 1 3 5
M  V30 5 1 4 6
M  V30 6 2 4 7
M  V30 7 1 5 8
M  V30 8 1 5 9
M  V30 9 1 6 10
M  V30 10 2 6 11
M  V30 11 1 7 12
M  V30 12 1 7 13
M  V30 13 2 8 14
M  V30 14 1 8 15
M  V30 15 1 9 16
M  V30 16 1 10 17
M  V30 17 2 10 18
M  V30 18 1 11 19
M  V30 19 1 12 20
M  V30 20 1 14 21
M  V30 21 2 15 22
M  V30 22 1 18 23
M  V30 23 2 20 24
M  V30 24 1 20 25
M  V30 25 2 21 26
M  V30 26 1 24 27
M  V30 27 2 25 28
M  V30 28 2 27 29
M  V30 29 2 12 17
M  V30 30 2 19 23
M  V30 31 1 22 26
M  V30 32 1 28 29
M  V30 33 1 3 30
M  V30 34 1 5 31
M  V30 35 1 9 32
M  V30 36 1 9 33
M  V30 37 1 11 34
M  V30 38 1 13 35
M  V30 39 1 13 36
M  V30 40 1 13 37
M  V30 41 1 14 38
M  V30 42 1 15 39
M  V30 43 1 16 40
M  V30 44 1 16 41
M  V30 45 1 16 42
M  V30 46 1 18 43
M  V30 47 1 19 44
M  V30 48 1 21 45
M  V30 49 1 22 46
M  V30 50 1 23 47
M  V30 51 1 24 48
M  V30 52 1 25 49
M  V30 53 1 26 50
M  V30 54 1 27 51
M  V30 55 1 28 52
M  V30 56 1 29 53
M  V30 END BOND
M  V30 BEGIN COLLECTION
M  V30 MDLV30/STERAC1 ATOMS=(1 5)
M  V30 END COLLECTION
M  V30 END CTAB
M  END
>  <level_0>
713

>  <index>
713

>  <NO.>
714

>  <Name>
sb-222200

>  <SMILES>
CCC(NC(=O)c1c(C)c(-c2ccccc2)nc2ccccc12)c1ccccc1

>  <logBB>
0.3

>  <Class>
1

>  <MW>
380.19

>  <nHBAcc>
2

>  <nHBDon>
1

>  <SLogP>
6.09

>  <TopoPSA>
41.99

>  <MMFF94 Energy>
55.796

$$$$
Cc1cc(NC(=O)c2ccc(CN3CCCC3)cc2)nn1Cc1cc(Cl)ccc1OCC(C)C
Actelion Java MolfileCreator 2.0

  0  0  0  0  0  0              0 V3000
M  V30 BEGIN CTAB
M  V30 COUNTS 67 70 0 0 0
M  V30 BEGIN ATOM
M  V30 1 Cl -1.832 -4.545 2.6294 0
M  V30 2 C -1.8578 -4.5805 0.9103 0
M  V30 3 C -0.9602 -3.8025 0.1853 0
M  V30 4 C -2.7743 -5.3896 0.2487 0
M  V30 5 C -0.9712 -3.8229 -1.2231 0
M  V30 6 C -2.7958 -5.4212 -1.1486 0
M  V30 7 C -1.9012 -4.642 -1.891 0
M  V30 8 C 0.0204 -2.9668 -1.9786 0
M  V30 9 O -1.849 -4.6107 -3.2582 0
M  V30 10 N -0.2676 -1.5426 -1.8335 0
M  V30 11 C -2.8188 -5.3677 -3.9844 0
M  V30 12 N 0.4131 -0.83 -0.906 0
M  V30 13 C -1.1386 -0.7754 -2.5672 0
M  V30 14 C -2.6125 -5.1183 -5.4859 0
M  V30 15 C -0.0595 0.4115 -1.0286 0
M  V30 16 C -1.0225 0.499 -2.0522 0
M  V30 17 C -1.9987 -1.2939 -3.6565 0
M  V30 18 C -1.2261 -5.5767 -5.9432 0
M  V30 19 C -3.6992 -5.8202 -6.2973 0
M  V30 20 N 0.4361 1.3864 -0.1992 0
M  V30 21 C 0.0189 2.6959 -0.1682 0
M  V30 22 O -0.8821 3.187 -0.8401 0
M  V30 23 C 0.7327 3.5627 0.8126 0
M  V30 24 C 0.0267 4.6156 1.4071 0
M  V30 25 C 2.0818 3.3681 1.1318 0
M  V30 26 C 0.6541 5.4507 2.335 0
M  V30 27 C 2.7068 4.2062 2.0592 0
M  V30 28 C 1.9989 5.2502 2.6745 0
M  V30 29 C 2.6873 6.1581 3.6729 0
M  V30 30 N 3.2244 5.4314 4.8267 0
M  V30 31 C 2.1822 4.8768 5.6944 0
M  V30 32 C 4.0133 6.3011 5.7001 0
M  V30 33 C 2.9338 4.558 6.9792 0
M  V30 34 C 4.1518 5.4748 6.9688 0
M  V30 35 H -0.2498 -3.1672 0.7129 0
M  V30 36 H -3.476 -5.9989 0.8123 0
M  V30 37 H -3.5252 -6.0682 -1.625 0
M  V30 38 H 0.0581 -3.1869 -3.0496 0
M  V30 39 H 1.032 -3.1454 -1.5931 0
M  V30 40 H -2.7004 -6.4361 -3.7656 0
M  V30 41 H -3.8277 -5.0413 -3.7031 0
M  V30 42 H -2.6781 -4.0384 -5.6712 0
M  V30 43 H -1.5663 1.375 -2.3776 0
M  V30 44 H -2.4788 -0.4705 -4.1957 0
M  V30 45 H -2.7903 -1.9317 -3.2525 0
M  V30 46 H -1.4163 -1.8675 -4.3836 0
M  V30 47 H -1.0817 -6.6466 -5.7589 0
M  V30 48 H -0.4354 -5.0319 -5.4172 0
M  V30 49 H -1.0931 -5.3971 -7.0153 0
M  V30 50 H -3.6682 -6.905 -6.149 0
M  V30 51 H -4.6932 -5.4662 -6.004 0
M  V30 52 H -3.5764 -5.6206 -7.3669 0
M  V30 53 H 1.1178 1.0335 0.4548 0
M  V30 54 H -1.0175 4.7853 1.1508 0
M  V30 55 H 2.6705 2.5898 0.655 0
M  V30 56 H 0.0843 6.2583 2.7893 0
M  V30 57 H 3.7545 4.046 2.3089 0
M  V30 58 H 2.004 6.9551 3.9957 0
M  V30 59 H 3.507 6.6555 3.1375 0
M  V30 60 H 1.7198 3.978 5.2746 0
M  V30 61 H 1.3934 5.6114 5.902 0
M  V30 62 H 4.9899 6.5431 5.2693 0
M  V30 63 H 3.4871 7.2384 5.923 0
M  V30 64 H 3.2574 3.5107 6.9931 0
M  V30 65 H 2.3074 4.7276 7.8609 0
M  V30 66 H 5.0679 4.8731 6.942 0
M  V30 67 H 4.1921 6.1081 7.8607 0
M  V30 END ATOM
M  V30 BEGIN BOND
M  V30 1 1 1 2
M  V30 2 2 2 3
M  V30 3 1 2 4
M  V30 4 1 3 5
M  V30 5 2 4 6
M  V30 6 2 5 7
M  V30 7 1 5 8
M  V30 8 1 7 9
M  V30 9 1 8 10
M  V30 10 1 9 11
M  V30 11 1 10 12
M  V30 12 1 10 13
M  V30 13 1 11 14
M  V30 14 2 12 15
M  V30 15 2 13 16
M  V30 16 1 13 17
M  V30 17 1 14 18
M  V30 18 1 14 19
M  V30 19 1 15 20
M  V30 20 1 20 21
M  V30 21 2 21 22
M  V30 22 1 21 23
M  V30 23 2 23 24
M  V30 24 1 23 25
M  V30 25 1 24 26
M  V30 26 2 25 27
M  V30 27 2 26 28
M  V30 28 1 28 29
M  V30 29 1 29 30
M  V30 30 1 30 31
M  V30 31 1 30 32
M  V30 32 1 31 33
M  V30 33 1 32 34
M  V30 34 1 6 7
M  V30 35 1 15 16
M  V30 36 1 27 28
M  V30 37 1 33 34
M  V30 38 1 3 35
M  V30 39 1 4 36
M  V30 40 1 6 37
M  V30 41 1 8 38
M  V30 42 1 8 39
M  V30 43 1 11 40
M  V30 44 1 11 41
M  V30 45 1 14 42
M  V30 46 1 16 43
M  V30 47 1 17 44
M  V30 48 1 17 45
M  V30 49 1 17 46
M  V30 50 1 18 47
M  V30 51 1 18 48
M  V30 52 1 18 49
M  V30 53 1 19 50
M  V30 54 1 19 51
M  V30 55 1 19 52
M  V30 56 1 20 53
M  V30 57 1 24 54
M  V30 58 1 25 55
M  V30 59 1 26 56
M  V30 60 1 27 57
M  V30 61 1 29 58
M  V30 62 1 29 59
M  V30 63 1 31 60
M  V30 64 1 31 61
M  V30 65 1 32 62
M  V30 66 1 32 63
M  V30 67 1 33 64
M  V30 68 1 33 65
M  V30 69 1 34 66
M  V30 70 1 34 67
M  V30 END BOND
M  V30 END CTAB
M  END
>  <level_0>
720

>  <index>
720

>  <NO.>
721

>  <Name>
chembl481689

>  <SMILES>
Cc1cc(NC(=O)c2ccc(CN3CCCC3)cc2)nn1Cc1cc(Cl)ccc1OCC(C)C

>  <logBB>
0.3

>  <Class>
1

>  <MW>
480.23

>  <nHBAcc>
4

>  <nHBDon>
1

>  <SLogP>
5.78

>  <TopoPSA>
59.39

>  <MMFF94 Energy>
35.406

$$$$
Cc1nc2sccn2c(=O)c1CCN1CCC(=C(c2ccc(F)cc2)c2ccc(F)cc2)CC1
Actelion Java MolfileCreator 2.0

  0  0  0  0  0  0              0 V3000
M  V30 BEGIN CTAB
M  V30 COUNTS 59 63 0 0 0
M  V30 BEGIN ATOM
M  V30 1 S 5.5339 -3.171 6.0233 0
M  V30 2 C 4.69 -2.7345 4.5458 0
M  V30 3 C 6.3511 -1.6318 6.0403 0
M  V30 4 N 3.8475 -3.4918 3.9366 0
M  V30 5 N 5.0719 -1.4743 4.1631 0
M  V30 6 C 5.9902 -0.8744 4.9982 0
M  V30 7 C 3.2871 -2.9803 2.7858 0
M  V30 8 C 4.5435 -0.8988 3.0356 0
M  V30 9 C 3.5685 -1.7557 2.2882 0
M  V30 10 C 2.3001 -3.9249 2.1452 0
M  V30 11 O 4.8193 0.2337 2.6459 0
M  V30 12 C 3.0174 -1.1672 1.0109 0
M  V30 13 C 1.8206 -0.2395 1.2833 0
M  V30 14 N 1.2432 0.333 0.0518 0
M  V30 15 C 0.467 -0.6648 -0.712 0
M  V30 16 C 0.3833 1.4877 0.3889 0
M  V30 17 C -0.1525 -0.0717 -1.9902 0
M  V30 18 C -0.233 2.1435 -0.8574 0
M  V30 19 C -1.0263 1.131 -1.669 0
M  V30 20 C -2.3256 1.2717 -2.0368 0
M  V30 21 C -2.9874 0.2137 -2.8346 0
M  V30 22 C -3.0776 2.4862 -1.6449 0
M  V30 23 C -2.8721 0.208 -4.2327 0
M  V30 24 C -3.737 -0.7857 -2.1974 0
M  V30 25 C -3.7725 2.5254 -0.4269 0
M  V30 26 C -3.1021 3.6032 -2.4926 0
M  V30 27 C -3.4972 -0.7885 -4.9835 0
M  V30 28 C -4.3612 -1.7809 -2.9512 0
M  V30 29 C -4.4818 3.6706 -0.0614 0
M  V30 30 C -3.8121 4.7471 -2.1242 0
M  V30 31 C -4.2353 -1.7727 -4.3357 0
M  V30 32 C -4.4947 4.7696 -0.913 0
M  V30 33 F -4.8339 -2.7293 -5.0571 0
M  V30 34 F -5.1751 5.8682 -0.5603 0
M  V30 35 H 7.0565 -1.3505 6.8103 0
M  V30 36 H 6.3487 0.1229 4.7757 0
M  V30 37 H 1.6053 -3.4267 1.4642 0
M  V30 38 H 1.6858 -4.4089 2.9132 0
M  V30 39 H 2.8324 -4.7053 1.5921 0
M  V30 40 H 2.7431 -1.9722 0.3224 0
M  V30 41 H 3.805 -0.6111 0.4859 0
M  V30 42 H 1.0486 -0.7666 1.8599 0
M  V30 43 H 2.1784 0.5789 1.922 0
M  V30 44 H 1.1162 -1.4902 -1.0219 0
M  V30 45 H -0.3285 -1.094 -0.0877 0
M  V30 46 H -0.4173 1.1837 1.0772 0
M  V30 47 H 0.9827 2.2493 0.903 0
M  V30 48 H -0.6945 -0.8696 -2.5057 0
M  V30 49 H 0.6461 0.248 -2.6721 0
M  V30 50 H 0.565 2.5514 -1.4916 0
M  V30 51 H -0.832 2.9994 -0.5335 0
M  V30 52 H -2.2938 0.9776 -4.7382 0
M  V30 53 H -3.8359 -0.7926 -1.115 0
M  V30 54 H -3.7615 1.6667 0.2394 0
M  V30 55 H -2.5671 3.5858 -3.4389 0
M  V30 56 H -3.4141 -0.8027 -6.0652 0
M  V30 57 H -4.9442 -2.5589 -2.4692 0
M  V30 58 H -5.0229 3.7127 0.8781 0
M  V30 59 H -3.8373 5.6172 -2.772 0
M  V30 END ATOM
M  V30 BEGIN BOND
M  V30 1 1 1 2
M  V30 2 1 1 3
M  V30 3 2 2 4
M  V30 4 1 2 5
M  V30 5 2 3 6
M  V30 6 1 4 7
M  V30 7 1 5 8
M  V30 8 2 7 9
M  V30 9 1 7 10
M  V30 10 2 8 11
M  V30 11 1 9 12
M  V30 12 1 12 13
M  V30 13 1 13 14
M  V30 14 1 14 15
M  V30 15 1 14 16
M  V30 16 1 15 17
M  V30 17 1 16 18
M  V30 18 1 17 19
M  V30 19 2 19 20
M  V30 20 1 20 21
M  V30 21 1 20 22
M  V30 22 2 21 23
M  V30 23 1 21 24
M  V30 24 2 22 25
M  V30 25 1 22 26
M  V30 26 1 23 27
M  V30 27 2 24 28
M  V30 28 1 25 29
M  V30 29 2 26 30
M  V30 30 2 27 31
M  V30 31 2 29 32
M  V30 32 1 31 33
M  V30 33 1 32 34
M  V30 34 1 5 6
M  V30 35 1 8 9
M  V30 36 1 18 19
M  V30 37 1 28 31
M  V30 38 1 30 32
M  V30 39 1 3 35
M  V30 40 1 6 36
M  V30 41 1 10 37
M  V30 42 1 10 38
M  V30 43 1 10 39
M  V30 44 1 12 40
M  V30 45 1 12 41
M  V30 46 1 13 42
M  V30 47 1 13 43
M  V30 48 1 15 44
M  V30 49 1 15 45
M  V30 50 1 16 46
M  V30 51 1 16 47
M  V30 52 1 17 48
M  V30 53 1 17 49
M  V30 54 1 18 50
M  V30 55 1 18 51
M  V30 56 1 23 52
M  V30 57 1 24 53
M  V30 58 1 25 54
M  V30 59 1 26 55
M  V30 60 1 27 56
M  V30 61 1 28 57
M  V30 62 1 29 58
M  V30 63 1 30 59
M  V30 END BOND
M  V30 END CTAB
M  END
>  <level_0>
722

>  <index>
722

>  <NO.>
723

>  <Name>
ritanserin

>  <SMILES>
Cc1nc2sccn2c(=O)c1CCN1CCC(=C(c2ccc(F)cc2)c2ccc(F)cc2)CC1

>  <logBB>
0.3

>  <Class>
1

>  <MW>
477.17

>  <nHBAcc>
4

>  <nHBDon>
0

>  <SLogP>
5.48

>  <TopoPSA>
37.61

>  <MMFF94 Energy>
69.554

$$$$
Cc1ccccc1-c1ccc(N)cc1N(C)C(=O)C(C)(C)c1cc(C(F)(F)F)cc(C(F)(F)F)c1
Actelion Java MolfileCreator 2.0

  0  0  0  0  0  0              0 V3000
M  V30 BEGIN CTAB
M  V30 COUNTS 59 61 0 0 0
M  V30 BEGIN ATOM
M  V30 1 F -2.8204 0.0805 4.1118 0
M  V30 2 C -1.9298 -0.5991 4.8864 0
M  V30 3 F -2.6453 -1.5877 5.4921 0
M  V30 4 F -1.5594 0.2566 5.8768 0
M  V30 5 C -0.7471 -1.1202 4.1031 0
M  V30 6 C -0.1629 -2.3547 4.4174 0
M  V30 7 C -0.1932 -0.3519 3.066 0
M  V30 8 C 0.9555 -2.8212 3.7115 0
M  V30 9 C 0.9093 -0.8044 2.314 0
M  V30 10 C 1.4773 -2.0414 2.6639 0
M  V30 11 C 1.5741 -4.1596 4.0443 0
M  V30 12 C 1.4829 0.0709 1.1826 0
M  V30 13 F 1.3539 -4.5477 5.3306 0
M  V30 14 F 1.0849 -5.1591 3.2605 0
M  V30 15 F 2.9252 -4.1772 3.875 0
M  V30 16 C 0.3637 0.8218 0.3904 0
M  V30 17 C 2.3753 1.1339 1.8816 0
M  V30 18 C 2.4057 -0.6642 0.1861 0
M  V30 19 O 0.2581 2.0498 0.5196 0
M  V30 20 N -0.509 0.1111 -0.4323 0
M  V30 21 C -1.4512 0.8508 -1.2083 0
M  V30 22 C -0.5959 -1.3372 -0.5918 0
M  V30 23 C -1.2478 1.0962 -2.582 0
M  V30 24 C -2.6166 1.3034 -0.5669 0
M  V30 25 C -0.0494 0.6489 -3.3134 0
M  V30 26 C -2.2517 1.7889 -3.2792 0
M  V30 27 C -3.5898 2.0189 -1.2649 0
M  V30 28 C 1.1605 1.3765 -3.3193 0
M  V30 29 C -0.1211 -0.5448 -4.0585 0
M  V30 30 C -3.4095 2.2327 -2.6307 0
M  V30 31 N -4.7621 2.4103 -0.6395 0
M  V30 32 C 2.268 0.8681 -4.0223 0
M  V30 33 C 1.34 2.6716 -2.5714 0
M  V30 34 C 0.9816 -1.029 -4.762 0
M  V30 35 C 2.1788 -0.3244 -4.7384 0
M  V30 36 H -0.5788 -2.9569 5.2272 0
M  V30 37 H -0.6374 0.6221 2.848 0
M  V30 38 H 2.3485 -2.4194 2.1297 0
M  V30 39 H 1.8026 1.7558 2.5807 0
M  V30 40 H 3.1846 0.665 2.4546 0
M  V30 41 H 2.834 1.8088 1.1488 0
M  V30 42 H 2.6164 -0.0393 -0.6892 0
M  V30 43 H 3.3707 -0.9171 0.6419 0
M  V30 44 H 1.9808 -1.6038 -0.1746 0
M  V30 45 H -1.6088 -1.6314 -0.888 0
M  V30 46 H 0.1068 -1.6564 -1.3647 0
M  V30 47 H -0.3602 -1.8537 0.3366 0
M  V30 48 H -2.7541 1.0988 0.4911 0
M  V30 49 H -2.1336 1.9894 -4.3424 0
M  V30 50 H -1.0514 -1.1098 -4.085 0
M  V30 51 H -4.1673 2.7565 -3.2071 0
M  V30 52 H -4.8227 2.3691 0.3695 0
M  V30 53 H -5.4007 3.0307 -1.1187 0
M  V30 54 H 3.2104 1.4126 -4.0186 0
M  V30 55 H 0.3904 3.1629 -2.3434 0
M  V30 56 H 1.9188 3.3789 -3.1759 0
M  V30 57 H 1.8796 2.4908 -1.6373 0
M  V30 58 H 0.9035 -1.954 -5.3266 0
M  V30 59 H 3.0424 -0.6971 -5.2827 0
M  V30 END ATOM
M  V30 BEGIN BOND
M  V30 1 1 1 2
M  V30 2 1 2 3
M  V30 3 1 2 4
M  V30 4 1 2 5
M  V30 5 2 5 6
M  V30 6 1 5 7
M  V30 7 1 6 8
M  V30 8 2 7 9
M  V30 9 2 8 10
M  V30 10 1 8 11
M  V30 11 1 9 12
M  V30 12 1 11 13
M  V30 13 1 11 14
M  V30 14 1 11 15
M  V30 15 1 12 16
M  V30 16 1 12 17
M  V30 17 1 12 18
M  V30 18 2 16 19
M  V30 19 1 16 20
M  V30 20 1 20 21
M  V30 21 1 20 22
M  V30 22 2 21 23
M  V30 23 1 21 24
M  V30 24 1 23 25
M  V30 25 1 23 26
M  V30 26 2 24 27
M  V30 27 2 25 28
M  V30 28 1 25 29
M  V30 29 2 26 30
M  V30 30 1 27 31
M  V30 31 1 28 32
M  V30 32 1 28 33
M  V30 33 2 29 34
M  V30 34 2 32 35
M  V30 35 1 9 10
M  V30 36 1 27 30
M  V30 37 1 34 35
M  V30 38 1 6 36
M  V30 39 1 7 37
M  V30 40 1 10 38
M  V30 41 1 17 39
M  V30 42 1 17 40
M  V30 43 1 17 41
M  V30 44 1 18 42
M  V30 45 1 18 43
M  V30 46 1 18 44
M  V30 47 1 22 45
M  V30 48 1 22 46
M  V30 49 1 22 47
M  V30 50 1 24 48
M  V30 51 1 26 49
M  V30 52 1 29 50
M  V30 53 1 30 51
M  V30 54 1 31 52
M  V30 55 1 31 53
M  V30 56 1 32 54
M  V30 57 1 33 55
M  V30 58 1 33 56
M  V30 59 1 33 57
M  V30 60 1 34 58
M  V30 61 1 35 59
M  V30 END BOND
M  V30 END CTAB
M  END
>  <level_0>
742

>  <index>
742

>  <NO.>
743

>  <Name>
schembl6867748

>  <SMILES>
Cc1ccccc1-c1ccc(N)cc1N(C)C(=O)C(C)(C)c1cc(C(F)(F)F)cc(C(F)(F)F)c1

>  <logBB>
0.34

>  <Class>
1

>  <MW>
494.18

>  <nHBAcc>
2

>  <nHBDon>
1

>  <SLogP>
7.22

>  <TopoPSA>
46.33

>  <MMFF94 Energy>
153.28

$$$$
COc1ccccc1CNC1C2CCN(CC2)C1C(c1ccccc1)c1ccccc1
Actelion Java MolfileCreator 2.0

  0  0  0  0  0  0              0 V3000
M  V30 BEGIN CTAB
M  V30 COUNTS 63 67 0 0 0
M  V30 BEGIN ATOM
M  V30 1 O -0.3998 -4.0036 -1.4399 0
M  V30 2 C 0.7728 -3.5803 -2.0115 0
M  V30 3 C -1.2525 -4.8235 -2.2281 0
M  V30 4 C 1.5887 -2.7603 -1.208 0
M  V30 5 C 1.1868 -3.9006 -3.3092 0
M  V30 6 C 2.7911 -2.2564 -1.7343 0
M  V30 7 C 1.1812 -2.3689 0.196 0
M  V30 8 C 2.3922 -3.4039 -3.813 0
M  V30 9 C 3.192 -2.5796 -3.0283 0
M  V30 10 N 0.3346 -1.1799 0.1637 0
M  V30 11 C -0.044 -0.687 1.4935 0
M  V30 12 C -0.6535 0.7832 1.5028 0
M  V30 13 C -1.0732 -1.6243 2.1977 0
M  V30 14 N -2.1168 0.7298 1.8633 0
M  V30 15 C -0.3156 1.6651 0.2349 0
M  V30 16 C -1.4574 -0.9817 3.5444 0
M  V30 17 C -2.3632 -1.6957 1.3595 0
M  V30 18 C -2.235 0.3162 3.2791 0
M  V30 19 C -2.8089 -0.2657 1.018 0
M  V30 20 C -1.0633 3.0049 0.1255 0
M  V30 21 C 1.1938 1.9069 0.0801 0
M  V30 22 C -1.3612 3.5152 -1.1514 0
M  V30 23 C -1.4225 3.7724 1.244 0
M  V30 24 C 1.9368 2.5918 1.0556 0
M  V30 25 C 1.8599 1.4619 -1.0736 0
M  V30 26 C -2.0125 4.7411 -1.3025 0
M  V30 27 C -2.0761 4.9982 1.0921 0
M  V30 28 C 3.3058 2.8117 0.8869 0
M  V30 29 C 3.2283 1.6824 -1.2409 0
M  V30 30 C -2.3718 5.4816 -0.1799 0
M  V30 31 C 3.9513 2.3558 -0.2599 0
M  V30 32 H -1.5955 -4.2924 -3.1221 0
M  V30 33 H -2.1343 -5.0629 -1.626 0
M  V30 34 H -0.7623 -5.767 -2.4893 0
M  V30 35 H 0.5922 -4.5325 -3.9602 0
M  V30 36 H 3.4132 -1.5987 -1.1301 0
M  V30 37 H 2.0856 -2.1737 0.7862 0
M  V30 38 H 0.6798 -3.2157 0.6772 0
M  V30 39 H 2.7024 -3.657 -4.8235 0
M  V30 40 H 4.1242 -2.1848 -3.4231 0
M  V30 41 H -0.4836 -1.3826 -0.4063 0
M  V30 42 H 0.8636 -0.6418 2.1117 0
M  V30 43 H -0.1668 1.2983 2.3447 0
M  V30 44 H -0.6632 -2.6239 2.372 0
M  V30 45 H -0.6579 1.084 -0.633 0
M  V30 46 H -2.0766 -1.6695 4.1322 0
M  V30 47 H -0.5553 -0.7735 4.1322 0
M  V30 48 H -2.2179 -2.279 0.4443 0
M  V30 49 H -3.148 -2.2062 1.9322 0
M  V30 50 H -3.293 0.1866 3.5408 0
M  V30 51 H -1.8669 1.1136 3.9365 0
M  V30 52 H -3.8933 -0.1769 1.1583 0
M  V30 53 H -2.6354 -0.0531 -0.0431 0
M  V30 54 H -1.0775 2.9567 -2.0407 0
M  V30 55 H -1.2062 3.4221 2.2491 0
M  V30 56 H 1.4529 2.9746 1.9503 0
M  V30 57 H 1.3146 0.9238 -1.8463 0
M  V30 58 H -2.2345 5.1176 -2.2971 0
M  V30 59 H -2.3543 5.5741 1.9704 0
M  V30 60 H 3.8656 3.3473 1.6488 0
M  V30 61 H 3.7261 1.3261 -2.1383 0
M  V30 62 H -2.8789 6.4353 -0.2956 0
M  V30 63 H 5.0153 2.5305 -0.3913 0
M  V30 END ATOM
M  V30 BEGIN BOND
M  V30 1 1 1 2
M  V30 2 1 1 3
M  V30 3 2 2 4
M  V30 4 1 2 5
M  V30 5 1 4 6
M  V30 6 1 4 7
M  V30 7 2 5 8
M  V30 8 2 6 9
M  V30 9 1 7 10
M  V30 10 1 10 11
M  V30 11 1 11 12
M  V30 12 1 11 13
M  V30 13 1 12 14
M  V30 14 1 12 15
M  V30 15 1 13 16
M  V30 16 1 13 17
M  V30 17 1 14 18
M  V30 18 1 14 19
M  V30 19 1 15 20
M  V30 20 1 15 21
M  V30 21 2 20 22
M  V30 22 1 20 23
M  V30 23 2 21 24
M  V30 24 1 21 25
M  V30 25 1 22 26
M  V30 26 2 23 27
M  V30 27 1 24 28
M  V30 28 2 25 29
M  V30 29 2 26 30
M  V30 30 2 28 31
M  V30 31 1 8 9
M  V30 32 1 16 18
M  V30 33 1 17 19
M  V30 34 1 27 30
M  V30 35 1 29 31
M  V30 36 1 3 32
M  V30 37 1 3 33
M  V30 38 1 3 34
M  V30 39 1 5 35
M  V30 40 1 6 36
M  V30 41 1 7 37
M  V30 42 1 7 38
M  V30 43 1 8 39
M  V30 44 1 9 40
M  V30 45 1 10 41
M  V30 46 1 11 42
M  V30 47 1 12 43
M  V30 48 1 13 44
M  V30 49 1 15 45
M  V30 50 1 16 46
M  V30 51 1 16 47
M  V30 52 1 17 48
M  V30 53 1 17 49
M  V30 54 1 18 50
M  V30 55 1 18 51
M  V30 56 1 19 52
M  V30 57 1 19 53
M  V30 58 1 22 54
M  V30 59 1 23 55
M  V30 60 1 24 56
M  V30 61 1 25 57
M  V30 62 1 26 58
M  V30 63 1 27 59
M  V30 64 1 28 60
M  V30 65 1 29 61
M  V30 66 1 30 62
M  V30 67 1 31 63
M  V30 END BOND
M  V30 END CTAB
M  END
>  <level_0>
755

>  <index>
755

>  <NO.>
756

>  <Name>
135095-42-0

>  <SMILES>
COc1ccccc1CNC1C2CCN(CC2)C1C(c1ccccc1)c1ccccc1

>  <logBB>
0.37

>  <Class>
1

>  <MW>
412.25

>  <nHBAcc>
3

>  <nHBDon>
1

>  <SLogP>
5.08

>  <TopoPSA>
24.5

>  <MMFF94 Energy>
144.97

$$$$
COc1ccc(C(C)(C)C)cc1CNC1C2CCN(CC2)C1C(c1ccccc1)c1ccccc1
Actelion Java MolfileCreator 2.0

  0  0  0  0  0  0              0 V3000
M  V30 BEGIN CTAB
M  V30 COUNTS 75 79 0 0 0
M  V30 BEGIN ATOM
M  V30 1 O -0.9558 -0.3185 4.3868 0
M  V30 2 C -0.953 -1.4425 3.6035 0
M  V30 3 C -0.7865 -0.4947 5.7872 0
M  V30 4 C -1.1155 -1.2415 2.2247 0
M  V30 5 C -0.7961 -2.7436 4.0836 0
M  V30 6 C -1.0901 -2.3526 1.3569 0
M  V30 7 C -1.291 0.139 1.6297 0
M  V30 8 C -0.7897 -3.8386 3.2082 0
M  V30 9 C -0.9345 -3.6705 1.8251 0
M  V30 10 N -0.0586 0.5841 0.9789 0
M  V30 11 C -0.9092 -4.8463 0.8346 0
M  V30 12 C -0.1454 1.9706 0.4982 0
M  V30 13 C -2.1854 -4.8352 -0.0354 0
M  V30 14 C 0.3294 -4.7171 -0.0759 0
M  V30 15 C -0.839 -6.2328 1.5141 0
M  V30 16 C 0.8971 2.2221 -0.663 0
M  V30 17 C 0.1101 3.0132 1.6213 0
M  V30 18 N 1.6591 3.4961 -0.4037 0
M  V30 19 C 0.2075 2.1678 -2.0871 0
M  V30 20 C 1.59 3.0019 2.0395 0
M  V30 21 C -0.1779 4.3996 1.0168 0
M  V30 22 C 2.4687 3.3109 0.82 0
M  V30 23 C 0.7369 4.629 -0.1933 0
M  V30 24 C 1.0828 2.5821 -3.279 0
M  V30 25 C -0.464 0.8193 -2.371 0
M  V30 26 C 0.4694 3.1485 -4.4117 0
M  V30 27 C 2.4711 2.3822 -3.3096 0
M  V30 28 C 0.2859 -0.3603 -2.4955 0
M  V30 29 C -1.8577 0.7472 -2.5346 0
M  V30 30 C 1.222 3.5172 -5.5284 0
M  V30 31 C 3.2237 2.7531 -4.4268 0
M  V30 32 C -0.3396 -1.5757 -2.7787 0
M  V30 33 C -2.4819 -0.471 -2.8094 0
M  V30 34 C 2.6 3.3211 -5.5348 0
M  V30 35 C -1.7225 -1.6316 -2.9333 0
M  V30 36 H -1.6056 -1.0833 6.2133 0
M  V30 37 H -0.812 0.495 6.2533 0
M  V30 38 H 0.1859 -0.9434 6.0143 0
M  V30 39 H -0.6711 -2.9507 5.1413 0
M  V30 40 H -1.1844 -2.1599 0.2882 0
M  V30 41 H -1.6156 0.8471 2.3991 0
M  V30 42 H -2.1061 0.0958 0.8957 0
M  V30 43 H -0.6598 -4.8239 3.647 0
M  V30 44 H 0.7107 0.4751 1.6358 0
M  V30 45 H -1.1551 2.1471 0.1036 0
M  V30 46 H -2.2606 -3.9349 -0.654 0
M  V30 47 H -2.2053 -5.6922 -0.7188 0
M  V30 48 H -3.0869 -4.8837 0.5868 0
M  V30 49 H 1.2542 -4.7183 0.513 0
M  V30 50 H 0.3859 -5.5485 -0.7879 0
M  V30 51 H 0.3161 -3.7913 -0.6599 0
M  V30 52 H -1.6953 -6.3991 2.1781 0
M  V30 53 H 0.0778 -6.3492 2.1035 0
M  V30 54 H -0.8442 -7.0381 0.7698 0
M  V30 55 H 1.641 1.4123 -0.6457 0
M  V30 56 H -0.5361 2.8468 2.4891 0
M  V30 57 H -0.5942 2.9201 -2.0483 0
M  V30 58 H 1.8704 2.037 2.4746 0
M  V30 59 H 1.7605 3.7579 2.816 0
M  V30 60 H -0.0076 5.1797 1.7686 0
M  V30 61 H -1.2287 4.4691 0.7115 0
M  V30 62 H 3.1986 2.506 0.6685 0
M  V30 63 H 3.0664 4.2118 1.0076 0
M  V30 64 H 1.3167 5.5494 -0.0469 0
M  V30 65 H 0.1381 4.8145 -1.0917 0
M  V30 66 H -0.6076 3.2988 -4.4311 0
M  V30 67 H 2.9875 1.942 -2.461 0
M  V30 68 H 1.3667 -0.3399 -2.3797 0
M  V30 69 H -2.4689 1.6424 -2.4501 0
M  V30 70 H 0.7305 3.9531 -6.3937 0
M  V30 71 H 4.2991 2.5977 -4.4285 0
M  V30 72 H 0.2566 -2.4783 -2.879 0
M  V30 73 H -3.5607 -0.5125 -2.932 0
M  V30 74 H 3.1872 3.6075 -6.4025 0
M  V30 75 H -2.2071 -2.5788 -3.1524 0
M  V30 END ATOM
M  V30 BEGIN BOND
M  V30 1 1 1 2
M  V30 2 1 1 3
M  V30 3 2 2 4
M  V30 4 1 2 5
M  V30 5 1 4 6
M  V30 6 1 4 7
M  V30 7 2 5 8
M  V30 8 2 6 9
M  V30 9 1 7 10
M  V30 10 1 9 11
M  V30 11 1 10 12
M  V30 12 1 11 13
M  V30 13 1 11 14
M  V30 14 1 11 15
M  V30 15 1 12 16
M  V30 16 1 12 17
M  V30 17 1 16 18
M  V30 18 1 16 19
M  V30 19 1 17 20
M  V30 20 1 17 21
M  V30 21 1 18 22
M  V30 22 1 18 23
M  V30 23 1 19 24
M  V30 24 1 19 25
M  V30 25 2 24 26
M  V30 26 1 24 27
M  V30 27 2 25 28
M  V30 28 1 25 29
M  V30 29 1 26 30
M  V30 30 2 27 31
M  V30 31 1 28 32
M  V30 32 2 29 33
M  V30 33 2 30 34
M  V30 34 2 32 35
M  V30 35 1 8 9
M  V30 36 1 20 22
M  V30 37 1 21 23
M  V30 38 1 31 34
M  V30 39 1 33 35
M  V30 40 1 3 36
M  V30 41 1 3 37
M  V30 42 1 3 38
M  V30 43 1 5 39
M  V30 44 1 6 40
M  V30 45 1 7 41
M  V30 46 1 7 42
M  V30 47 1 8 43
M  V30 48 1 10 44
M  V30 49 1 12 45
M  V30 50 1 13 46
M  V30 51 1 13 47
M  V30 52 1 13 48
M  V30 53 1 14 49
M  V30 54 1 14 50
M  V30 55 1 14 51
M  V30 56 1 15 52
M  V30 57 1 15 53
M  V30 58 1 15 54
M  V30 59 1 16 55
M  V30 60 1 17 56
M  V30 61 1 19 57
M  V30 62 1 20 58
M  V30 63 1 20 59
M  V30 64 1 21 60
M  V30 65 1 21 61
M  V30 66 1 22 62
M  V30 67 1 22 63
M  V30 68 1 23 64
M  V30 69 1 23 65
M  V30 70 1 26 66
M  V30 71 1 27 67
M  V30 72 1 28 68
M  V30 73 1 29 69
M  V30 74 1 30 70
M  V30 75 1 31 71
M  V30 76 1 32 72
M  V30 77 1 33 73
M  V30 78 1 34 74
M  V30 79 1 35 75
M  V30 END BOND
M  V30 END CTAB
M  END
>  <level_0>
807

>  <index>
807

>  <NO.>
808

>  <Name>
147116-67-4

>  <SMILES>
COc1ccc(C(C)(C)C)cc1CNC1C2CCN(CC2)C1C(c1ccccc1)c1ccccc1

>  <logBB>
0.46

>  <Class>
1

>  <MW>
468.31

>  <nHBAcc>
3

>  <nHBDon>
1

>  <SLogP>
6.38

>  <TopoPSA>
24.5

>  <MMFF94 Energy>
159.17

$$$$
CCC(C)N(C)C(=O)c1cc2ccccc2c(-c2ccccc2Cl)n1
Actelion Java MolfileCreator 2.0

  0  0  0  0  0  0              0 V3000
M  V30 BEGIN CTAB
M  V30 COUNTS 46 48 0 0 0
M  V30 BEGIN ATOM
M  V30 1 Cl 1.0418 3.0476 2.887 0
M  V30 2 C 0.9409 3.5158 1.2239 0
M  V30 3 C 0.1872 2.7828 0.2901 0
M  V30 4 C 1.6422 4.6628 0.8339 0
M  V30 5 C -0.566 1.572 0.6481 0
M  V30 6 C 0.1743 3.2278 -1.0459 0
M  V30 7 C 1.6069 5.0909 -0.4926 0
M  V30 8 N 0.0677 0.4247 0.293 0
M  V30 9 C -1.8373 1.6039 1.2703 0
M  V30 10 C 0.8747 4.3725 -1.4333 0
M  V30 11 C -0.5499 -0.7466 0.5738 0
M  V30 12 C -2.4436 0.3608 1.5533 0
M  V30 13 C -2.5377 2.7839 1.6223 0
M  V30 14 C 0.1683 -2.0254 0.246 0
M  V30 15 C -1.7833 -0.8209 1.2071 0
M  V30 16 C -3.701 0.3211 2.179 0
M  V30 17 C -3.788 2.7285 2.2408 0
M  V30 18 O -0.0898 -3.0066 0.947 0
M  V30 19 N 1.0962 -2.0786 -0.8073 0
M  V30 20 C -4.3681 1.4973 2.5204 0
M  V30 21 C 2.0084 -3.2309 -0.9347 0 CFG=2
M  V30 22 C 1.2443 -1.0203 -1.7996 0
M  V30 23 C 1.2944 -4.548 -1.2931 0
M  V30 24 C 2.8916 -3.3991 0.3063 0
M  V30 25 C 0.5036 -4.4607 -2.5914 0
M  V30 26 H 2.2228 5.2244 1.5619 0
M  V30 27 H -0.3872 2.6712 -1.7947 0
M  V30 28 H 2.156 5.9804 -0.7919 0
M  V30 29 H 0.8511 4.6987 -2.4704 0
M  V30 30 H -2.1097 3.7636 1.4196 0
M  V30 31 H -2.2188 -1.7919 1.4267 0
M  V30 32 H -4.1735 -0.6326 2.4076 0
M  V30 33 H -4.3045 3.6476 2.5066 0
M  V30 34 H -5.3399 1.4498 3.0056 0
M  V30 35 H 2.6971 -3.0036 -1.7598 0
M  V30 36 H 2.0396 -0.3432 -1.4761 0
M  V30 37 H 0.3101 -0.4734 -1.9442 0
M  V30 38 H 1.5113 -1.4566 -2.7671 0
M  V30 39 H 0.623 -4.8681 -0.4895 0
M  V30 40 H 2.0451 -5.341 -1.4004 0
M  V30 41 H 3.3934 -2.4574 0.5545 0
M  V30 42 H 3.6634 -4.1555 0.1284 0
M  V30 43 H 2.3188 -3.7134 1.1839 0
M  V30 44 H -0.3207 -3.7456 -2.51 0
M  V30 45 H 1.1465 -4.1555 -3.4229 0
M  V30 46 H 0.0746 -5.4376 -2.8364 0
M  V30 END ATOM
M  V30 BEGIN BOND
M  V30 1 1 1 2
M  V30 2 2 2 3
M  V30 3 1 2 4
M  V30 4 1 3 5
M  V30 5 1 3 6
M  V30 6 2 4 7
M  V30 7 2 5 8
M  V30 8 1 5 9
M  V30 9 2 6 10
M  V30 10 1 8 11
M  V30 11 1 9 12
M  V30 12 2 9 13
M  V30 13 1 11 14
M  V30 14 2 11 15
M  V30 15 2 12 16
M  V30 16 1 13 17
M  V30 17 2 14 18
M  V30 18 1 14 19
M  V30 19 1 16 20
M  V30 20 1 19 21
M  V30 21 1 19 22
M  V30 22 1 21 23
M  V30 23 1 21 24
M  V30 24 1 23 25
M  V30 25 1 7 10
M  V30 26 1 12 15
M  V30 27 2 17 20
M  V30 28 1 4 26
M  V30 29 1 6 27
M  V30 30 1 7 28
M  V30 31 1 10 29
M  V30 32 1 13 30
M  V30 33 1 15 31
M  V30 34 1 16 32
M  V30 35 1 17 33
M  V30 36 1 20 34
M  V30 37 1 21 35
M  V30 38 1 22 36
M  V30 39 1 22 37
M  V30 40 1 22 38
M  V30 41 1 23 39
M  V30 42 1 23 40
M  V30 43 1 24 41
M  V30 44 1 24 42
M  V30 45 1 24 43
M  V30 46 1 25 44
M  V30 47 1 25 45
M  V30 48 1 25 46
M  V30 END BOND
M  V30 BEGIN COLLECTION
M  V30 MDLV30/STERAC1 ATOMS=(1 21)
M  V30 END COLLECTION
M  V30 END CTAB
M  END
>  <level_0>
810

>  <index>
810

>  <NO.>
811

>  <Name>
pk 11195

>  <SMILES>
CCC(C)N(C)C(=O)c1cc2ccccc2c(-c2ccccc2Cl)n1

>  <logBB>
0.48

>  <Class>
1

>  <MW>
352.13

>  <nHBAcc>
2

>  <nHBDon>
0

>  <SLogP>
5.43

>  <TopoPSA>
33.2

>  <MMFF94 Energy>
95.476

$$$$
COc1ccc(C(C)C)cc1CNC1C2CCN(CC2)C1C(c1ccccc1)c1ccccc1
Actelion Java MolfileCreator 2.0

  0  0  0  0  0  0              0 V3000
M  V30 BEGIN CTAB
M  V30 COUNTS 72 76 0 0 0
M  V30 BEGIN ATOM
M  V30 1 O -2.4721 1.7539 2.7116 0
M  V30 2 C -2.6203 0.4001 2.5541 0
M  V30 3 C -3.6518 2.5215 2.9122 0
M  V30 4 C -1.4369 -0.3303 2.3487 0
M  V30 5 C -3.8439 -0.2744 2.576 0
M  V30 6 C -1.5091 -1.7209 2.1419 0
M  V30 7 C -0.0846 0.3462 2.2899 0
M  V30 8 C -3.8991 -1.6591 2.3811 0
M  V30 9 C -2.7339 -2.4005 2.1568 0
M  V30 10 N 0.2143 0.7515 0.9197 0
M  V30 11 C -2.7678 -3.8991 1.9208 0
M  V30 12 C 1.5536 1.3259 0.7496 0
M  V30 13 C -3.3466 -4.6477 3.1238 0
M  V30 14 C -3.5334 -4.2462 0.6418 0
M  V30 15 C 2.0275 1.4535 -0.764 0
M  V30 16 C 1.6762 2.7386 1.3994 0
M  V30 17 N 2.1084 2.9077 -1.1552 0
M  V30 18 C 1.2596 0.5334 -1.7955 0
M  V30 19 C 3.0881 3.278 1.1014 0
M  V30 20 C 0.6835 3.7035 0.7248 0
M  V30 21 C 3.2219 3.5323 -0.4074 0
M  V30 22 C 0.8508 3.5974 -0.7984 0
M  V30 23 C 1.5583 0.7938 -3.2816 0
M  V30 24 C 1.4386 -0.9621 -1.4926 0
M  V30 25 C 0.5411 0.5743 -4.2288 0
M  V30 26 C 2.8193 1.196 -3.7472 0
M  V30 27 C 0.3147 -1.7626 -1.2287 0
M  V30 28 C 2.7033 -1.5723 -1.5006 0
M  V30 29 C 0.7732 0.769 -5.5918 0
M  V30 30 C 3.0502 1.3925 -5.1112 0
M  V30 31 C 0.4523 -3.1273 -0.9681 0
M  V30 32 C 2.8395 -2.9374 -1.2385 0
M  V30 33 C 2.0278 1.1803 -6.0325 0
M  V30 34 C 1.7147 -3.714 -0.9707 0
M  V30 35 H -4.3211 2.4504 2.0486 0
M  V30 36 H -3.354 3.5694 3.0155 0
M  V30 37 H -4.1616 2.2285 3.8358 0
M  V30 38 H -4.7818 0.2465 2.7361 0
M  V30 39 H -0.5872 -2.2698 1.9535 0
M  V30 40 H 0.6764 -0.3557 2.6537 0
M  V30 41 H -0.0689 1.1966 2.98 0
M  V30 42 H -4.8691 -2.1508 2.3983 0
M  V30 43 H -0.5109 1.3931 0.6071 0
M  V30 44 H -1.7378 -4.2553 1.7868 0
M  V30 45 H 2.2758 0.6562 1.2373 0
M  V30 46 H -4.3992 -4.3972 3.2955 0
M  V30 47 H -3.2841 -5.7302 2.9694 0
M  V30 48 H -2.7928 -4.4069 4.0381 0
M  V30 49 H -4.593 -3.9771 0.7131 0
M  V30 50 H -3.1131 -3.719 -0.2218 0
M  V30 51 H -3.4762 -5.321 0.4388 0
M  V30 52 H 3.0664 1.0917 -0.7786 0
M  V30 53 H 1.5169 2.7059 2.4818 0
M  V30 54 H 0.1944 0.7784 -1.678 0
M  V30 55 H 3.8437 2.5573 1.4361 0
M  V30 56 H 3.2634 4.2109 1.6501 0
M  V30 57 H 0.8857 4.7308 1.0535 0
M  V30 58 H -0.3503 3.4837 1.0115 0
M  V30 59 H 4.1822 3.1441 -0.7681 0
M  V30 60 H 3.247 4.6104 -0.611 0
M  V30 61 H -0.008 3.0816 -1.2433 0
M  V30 62 H 0.845 4.6024 -1.2381 0
M  V30 63 H -0.4423 0.2413 -3.9046 0
M  V30 64 H 3.6364 1.3703 -3.0532 0
M  V30 65 H -0.6794 -1.3206 -1.2101 0
M  V30 66 H 3.5945 -0.993 -1.7272 0
M  V30 67 H -0.0253 0.5951 -6.3074 0
M  V30 68 H 4.0309 1.7127 -5.452 0
M  V30 69 H -0.4285 -3.7286 -0.7624 0
M  V30 70 H 3.8248 -3.3952 -1.2526 0
M  V30 71 H 2.2098 1.3326 -7.0924 0
M  V30 72 H 1.8217 -4.7763 -0.7708 0
M  V30 END ATOM
M  V30 BEGIN BOND
M  V30 1 1 1 2
M  V30 2 1 1 3
M  V30 3 2 2 4
M  V30 4 1 2 5
M  V30 5 1 4 6
M  V30 6 1 4 7
M  V30 7 2 5 8
M  V30 8 2 6 9
M  V30 9 1 7 10
M  V30 10 1 9 11
M  V30 11 1 10 12
M  V30 12 1 11 13
M  V30 13 1 11 14
M  V30 14 1 12 15
M  V30 15 1 12 16
M  V30 16 1 15 17
M  V30 17 1 15 18
M  V30 18 1 16 19
M  V30 19 1 16 20
M  V30 20 1 17 21
M  V30 21 1 17 22
M  V30 22 1 18 23
M  V30 23 1 18 24
M  V30 24 2 23 25
M  V30 25 1 23 26
M  V30 26 2 24 27
M  V30 27 1 24 28
M  V30 28 1 25 29
M  V30 29 2 26 30
M  V30 30 1 27 31
M  V30 31 2 28 32
M  V30 32 2 29 33
M  V30 33 2 31 34
M  V30 34 1 8 9
M  V30 35 1 19 21
M  V30 36 1 20 22
M  V30 37 1 30 33
M  V30 38 1 32 34
M  V30 39 1 3 35
M  V30 40 1 3 36
M  V30 41 1 3 37
M  V30 42 1 5 38
M  V30 43 1 6 39
M  V30 44 1 7 40
M  V30 45 1 7 41
M  V30 46 1 8 42
M  V30 47 1 10 43
M  V30 48 1 11 44
M  V30 49 1 12 45
M  V30 50 1 13 46
M  V30 51 1 13 47
M  V30 52 1 13 48
M  V30 53 1 14 49
M  V30 54 1 14 50
M  V30 55 1 14 51
M  V30 56 1 15 52
M  V30 57 1 16 53
M  V30 58 1 18 54
M  V30 59 1 19 55
M  V30 60 1 19 56
M  V30 61 1 20 57
M  V30 62 1 20 58
M  V30 63 1 21 59
M  V30 64 1 21 60
M  V30 65 1 22 61
M  V30 66 1 22 62
M  V30 67 1 25 63
M  V30 68 1 26 64
M  V30 69 1 27 65
M  V30 70 1 28 66
M  V30 71 1 29 67
M  V30 72 1 30 68
M  V30 73 1 31 69
M  V30 74 1 32 70
M  V30 75 1 33 71
M  V30 76 1 34 72
M  V30 END BOND
M  V30 END CTAB
M  END
>  <level_0>
812

>  <index>
812

>  <NO.>
813

>  <Name>
pfizer compound 1

>  <SMILES>
COc1ccc(C(C)C)cc1CNC1C2CCN(CC2)C1C(c1ccccc1)c1ccccc1

>  <logBB>
0.48

>  <Class>
1

>  <MW>
454.3

>  <nHBAcc>
3

>  <nHBDon>
1

>  <SLogP>
6.2

>  <TopoPSA>
24.5

>  <MMFF94 Energy>
150.92

$$$$
O=C(NCCCCN1CCC(Oc2cccc(C(F)(F)F)c2)CC1)c1ccnc2ccccc12
Actelion Java MolfileCreator 2.0

  0  0  0  0  0  0              0 V3000
M  V30 BEGIN CTAB
M  V30 COUNTS 62 65 0 0 0
M  V30 BEGIN ATOM
M  V30 1 F 8.7538 0.4803 -0.8006 0
M  V30 2 C 9.0074 -0.6953 -0.1608 0
M  V30 3 F 8.9815 -0.4098 1.1703 0
M  V30 4 F 10.3031 -1.0018 -0.4512 0
M  V30 5 C 8.0414 -1.7914 -0.5305 0
M  V30 6 C 6.6974 -1.4899 -0.8029 0
M  V30 7 C 8.4535 -3.1294 -0.5722 0
M  V30 8 C 5.7802 -2.4939 -1.1285 0
M  V30 9 C 7.5426 -4.1355 -0.8925 0
M  V30 10 O 4.5144 -2.0406 -1.366 0
M  V30 11 C 6.2097 -3.8188 -1.1699 0
M  V30 12 C 3.5066 -2.9615 -1.8072 0
M  V30 13 C 2.8281 -3.6337 -0.6135 0
M  V30 14 C 2.4706 -2.1599 -2.5981 0
M  V30 15 C 2.0317 -2.6286 0.2186 0
M  V30 16 C 1.6768 -1.2083 -1.7007 0
M  V30 17 N 1.0215 -1.9356 -0.6006 0
M  V30 18 C 0.2222 -1.0383 0.2532 0
M  V30 19 C -1.0416 -0.5195 -0.4455 0
M  V30 20 C -1.9134 0.2858 0.5205 0
M  V30 21 C -3.17 0.8055 -0.169 0
M  V30 22 N -3.991 1.5742 0.7437 0
M  V30 23 C -5.3326 1.7807 0.4985 0
M  V30 24 O -5.9337 1.3315 -0.4673 0
M  V30 25 C -6.0287 2.6161 1.5067 0
M  V30 26 C -6.7776 3.7562 1.1329 0
M  V30 27 C -5.9306 2.2266 2.843 0
M  V30 28 C -7.3902 4.4692 2.1835 0
M  V30 29 C -6.9352 4.2272 -0.1954 0
M  V30 30 C -6.5776 2.9988 3.7797 0
M  V30 31 N -7.2876 4.1029 3.4738 0
M  V30 32 C -8.1299 5.605 1.8806 0
M  V30 33 C -7.684 5.3697 -0.472 0
M  V30 34 C -8.2836 6.0614 0.5697 0
M  V30 35 H 6.3562 -0.4557 -0.765 0
M  V30 36 H 9.4875 -3.3935 -0.3549 0
M  V30 37 H 7.8694 -5.1725 -0.9234 0
M  V30 38 H 5.5352 -4.6351 -1.4044 0
M  V30 39 H 3.9316 -3.7043 -2.492 0
M  V30 40 H 2.156 -4.423 -0.9733 0
M  V30 41 H 3.5682 -4.1111 0.0374 0
M  V30 42 H 1.7789 -2.8491 -3.0991 0
M  V30 43 H 2.9703 -1.5721 -3.3775 0
M  V30 44 H 2.7112 -1.9097 0.695 0
M  V30 45 H 1.5351 -3.1846 1.0236 0
M  V30 46 H 2.335 -0.4204 -1.312 0
M  V30 47 H 0.93 -0.72 -2.3353 0
M  V30 48 H 0.8288 -0.1962 0.6114 0
M  V30 49 H -0.1043 -1.5937 1.1423 0
M  V30 50 H -1.6189 -1.3651 -0.8393 0
M  V30 51 H -0.7779 0.1199 -1.2949 0
M  V30 52 H -2.1978 -0.339 1.3764 0
M  V30 53 H -1.3381 1.1286 0.9237 0
M  V30 54 H -2.91 1.4655 -1.0039 0
M  V30 55 H -3.7619 -0.0248 -0.5699 0
M  V30 56 H -3.5424 2.0831 1.4948 0
M  V30 57 H -5.3872 1.3375 3.1416 0
M  V30 58 H -6.479 3.6973 -1.0299 0
M  V30 59 H -6.5485 2.7465 4.8361 0
M  V30 60 H -8.6036 6.1526 2.6925 0
M  V30 61 H -7.7991 5.7114 -1.4974 0
M  V30 62 H -8.8725 6.9527 0.3702 0
M  V30 END ATOM
M  V30 BEGIN BOND
M  V30 1 1 1 2
M  V30 2 1 2 3
M  V30 3 1 2 4
M  V30 4 1 2 5
M  V30 5 2 5 6
M  V30 6 1 5 7
M  V30 7 1 6 8
M  V30 8 2 7 9
M  V30 9 1 8 10
M  V30 10 2 8 11
M  V30 11 1 10 12
M  V30 12 1 12 13
M  V30 13 1 12 14
M  V30 14 1 13 15
M  V30 15 1 14 16
M  V30 16 1 15 17
M  V30 17 1 17 18
M  V30 18 1 18 19
M  V30 19 1 19 20
M  V30 20 1 20 21
M  V30 21 1 21 22
M  V30 22 1 22 23
M  V30 23 2 23 24
M  V30 24 1 23 25
M  V30 25 1 25 26
M  V30 26 2 25 27
M  V30 27 1 26 28
M  V30 28 2 26 29
M  V30 29 1 27 30
M  V30 30 1 28 31
M  V30 31 2 28 32
M  V30 32 1 29 33
M  V30 33 1 32 34
M  V30 34 1 9 11
M  V30 35 1 16 17
M  V30 36 2 30 31
M  V30 37 2 33 34
M  V30 38 1 6 35
M  V30 39 1 7 36
M  V30 40 1 9 37
M  V30 41 1 11 38
M  V30 42 1 12 39
M  V30 43 1 13 40
M  V30 44 1 13 41
M  V30 45 1 14 42
M  V30 46 1 14 43
M  V30 47 1 15 44
M  V30 48 1 15 45
M  V30 49 1 16 46
M  V30 50 1 16 47
M  V30 51 1 18 48
M  V30 52 1 18 49
M  V30 53 1 19 50
M  V30 54 1 19 51
M  V30 55 1 20 52
M  V30 56 1 20 53
M  V30 57 1 21 54
M  V30 58 1 21 55
M  V30 59 1 22 56
M  V30 60 1 27 57
M  V30 61 1 29 58
M  V30 62 1 30 59
M  V30 63 1 32 60
M  V30 64 1 33 61
M  V30 65 1 34 62
M  V30 END BOND
M  V30 END CTAB
M  END
>  <level_0>
814

>  <index>
814

>  <NO.>
815

>  <Name>
piperidinederivatives 3

>  <SMILES>
O=C(NCCCCN1CCC(Oc2cccc(C(F)(F)F)c2)CC1)c1ccnc2ccccc12

>  <logBB>
0.48

>  <Class>
1

>  <MW>
471.21

>  <nHBAcc>
4

>  <nHBDon>
1

>  <SLogP>
5.31

>  <TopoPSA>
54.46

>  <MMFF94 Energy>
50.28

$$$$
C/C(=C(\CCOC(=O)C(N)Cc1ccc(OC(=O)C(C)(C)C)c(OC(=O)C(C)(C)C)c1)SSC(C)C)N(C)C=O
Actelion Java MolfileCreator 2.0

  0  0  0  0  0  0              0 V3000
M  V30 BEGIN CTAB
M  V30 COUNTS 84 84 0 0 0
M  V30 BEGIN ATOM
M  V30 1 S 7.1836 -2.4699 1.2742 0
M  V30 2 S 7.5776 -4.3978 1.883 0
M  V30 3 C 5.9267 -2.791 0.0773 0
M  V30 4 C 6.3584 -4.6996 3.22 0
M  V30 5 C 6.1605 -3.3862 -1.1267 0
M  V30 6 C 4.5311 -2.4438 0.5771 0
M  V30 7 C 6.4349 -6.1741 3.6106 0
M  V30 8 C 6.6243 -3.8115 4.4318 0
M  V30 9 N 7.4334 -3.6789 -1.649 0
M  V30 10 C 5.0159 -3.795 -2.0401 0
M  V30 11 C 4.1154 -1.0249 0.1906 0
M  V30 12 C 8.5121 -2.7972 -1.6059 0
M  V30 13 C 7.6411 -4.9135 -2.3967 0
M  V30 14 O 2.7838 -0.8016 0.681 0
M  V30 15 O 9.6282 -2.999 -2.0734 0
M  V30 16 C 2.2631 0.4233 0.3569 0
M  V30 17 O 2.8542 1.2679 -0.3016 0
M  V30 18 C 0.8277 0.5536 0.9038 0 CFG=1
M  V30 19 N 0.7422 -0.0281 2.2719 0
M  V30 20 C 0.375 2.0265 0.892 0
M  V30 21 C -1.1298 2.1844 0.9136 0
M  V30 22 C -1.833 2.3903 -0.2833 0
M  V30 23 C -1.8423 2.1002 2.121 0
M  V30 24 C -3.2244 2.4992 -0.2616 0
M  V30 25 C -3.2332 2.2296 2.1398 0
M  V30 26 O -3.9179 2.7269 -1.4512 0
M  V30 27 C -3.9157 2.4502 0.9459 0
M  V30 28 C -4.0396 1.5931 -2.2506 0
M  V30 29 O -5.3061 2.5476 0.9753 0
M  V30 30 O -3.6425 0.4691 -1.9665 0
M  V30 31 C -4.7267 1.9614 -3.5712 0
M  V30 32 C -5.7538 3.8548 1.1497 0
M  V30 33 C -4.9493 0.6881 -4.4031 0
M  V30 34 C -6.0863 2.614 -3.2925 0
M  V30 35 C -3.8232 2.9213 -4.3558 0
M  V30 36 O -5.0481 4.8552 1.1987 0
M  V30 37 C -7.2819 3.8639 1.2851 0
M  V30 38 C -7.6947 3.0043 2.4878 0
M  V30 39 C -7.7659 5.305 1.5149 0
M  V30 40 C -7.9179 3.3243 -0.001 0
M  V30 41 H 5.3548 -4.503 2.8289 0
M  V30 42 H 3.784 -3.1636 0.222 0
M  V30 43 H 4.4669 -2.5443 1.6692 0
M  V30 44 H 6.2182 -6.8254 2.7565 0
M  V30 45 H 5.6954 -6.4013 4.3868 0
M  V30 46 H 7.4209 -6.4415 4.0076 0
M  V30 47 H 6.5026 -2.7499 4.1952 0
M  V30 48 H 5.9146 -4.0418 5.2346 0
M  V30 49 H 7.6332 -3.9618 4.8322 0
M  V30 50 H 4.1041 -3.2145 -1.8794 0
M  V30 51 H 5.2793 -3.6269 -3.0906 0
M  V30 52 H 4.7772 -4.8546 -1.9044 0
M  V30 53 H 4.7921 -0.2902 0.6431 0
M  V30 54 H 4.1263 -0.9071 -0.8993 0
M  V30 55 H 8.2663 -1.826 -1.1507 0
M  V30 56 H 8.6941 -5.211 -2.3758 0
M  V30 57 H 7.3505 -4.754 -3.4395 0
M  V30 58 H 7.0521 -5.7249 -1.9579 0
M  V30 59 H 0.19 -0.0388 0.2361 0
M  V30 60 H 1.3734 0.4814 2.89 0
M  V30 61 H 1.1077 -0.9813 2.2272 0
M  V30 62 H 0.8121 2.5751 1.7376 0
M  V30 63 H 0.756 2.5397 -5.0E-4 0
M  V30 64 H -1.3033 2.4548 -1.2296 0
M  V30 65 H -1.3138 1.9227 3.0556 0
M  V30 66 H -3.7721 2.1599 3.0796 0
M  V30 67 H -5.577 -0.0319 -3.8654 0
M  V30 68 H -5.441 0.9157 -5.3555 0
M  V30 69 H -3.9998 0.1891 -4.6291 0
M  V30 70 H -6.7147 1.9632 -2.6741 0
M  V30 71 H -5.976 3.565 -2.7598 0
M  V30 72 H -6.6262 2.8202 -4.2233 0
M  V30 73 H -3.6739 3.8645 -3.818 0
M  V30 74 H -4.2545 3.1624 -5.3337 0
M  V30 75 H -2.8324 2.4829 -4.5213 0
M  V30 76 H -7.1955 3.3425 3.4032 0
M  V30 77 H -8.7765 3.0499 2.6556 0
M  V30 78 H -7.4281 1.9513 2.343 0
M  V30 79 H -7.3277 5.7309 2.425 0
M  V30 80 H -7.4833 5.9571 0.6803 0
M  V30 81 H -8.8561 5.3473 1.6175 0
M  V30 82 H -7.6232 2.2869 -0.1938 0
M  V30 83 H -7.6103 3.9181 -0.8687 0
M  V30 84 H -9.0118 3.3524 0.0551 0
M  V30 END ATOM
M  V30 BEGIN BOND
M  V30 1 1 1 2
M  V30 2 1 1 3
M  V30 3 1 2 4
M  V30 4 2 3 5
M  V30 5 1 3 6
M  V30 6 1 4 7
M  V30 7 1 4 8
M  V30 8 1 5 9
M  V30 9 1 5 10
M  V30 10 1 6 11
M  V30 11 1 9 12
M  V30 12 1 9 13
M  V30 13 1 11 14
M  V30 14 2 12 15
M  V30 15 1 14 16
M  V30 16 2 16 17
M  V30 17 1 16 18
M  V30 18 1 18 19
M  V30 19 1 18 20
M  V30 20 1 20 21
M  V30 21 2 21 22
M  V30 22 1 21 23
M  V30 23 1 22 24
M  V30 24 2 23 25
M  V30 25 1 24 26
M  V30 26 2 24 27
M  V30 27 1 26 28
M  V30 28 1 27 29
M  V30 29 2 28 30
M  V30 30 1 28 31
M  V30 31 1 29 32
M  V30 32 1 31 33
M  V30 33 1 31 34
M  V30 34 1 31 35
M  V30 35 2 32 36
M  V30 36 1 32 37
M  V30 37 1 37 38
M  V30 38 1 37 39
M  V30 39 1 37 40
M  V30 40 1 25 27
M  V30 41 1 4 41
M  V30 42 1 6 42
M  V30 43 1 6 43
M  V30 44 1 7 44
M  V30 45 1 7 45
M  V30 46 1 7 46
M  V30 47 1 8 47
M  V30 48 1 8 48
M  V30 49 1 8 49
M  V30 50 1 10 50
M  V30 51 1 10 51
M  V30 52 1 10 52
M  V30 53 1 11 53
M  V30 54 1 11 54
M  V30 55 1 12 55
M  V30 56 1 13 56
M  V30 57 1 13 57
M  V30 58 1 13 58
M  V30 59 1 18 59
M  V30 60 1 19 60
M  V30 61 1 19 61
M  V30 62 1 20 62
M  V30 63 1 20 63
M  V30 64 1 22 64
M  V30 65 1 23 65
M  V30 66 1 25 66
M  V30 67 1 33 67
M  V30 68 1 33 68
M  V30 69 1 33 69
M  V30 70 1 34 70
M  V30 71 1 34 71
M  V30 72 1 34 72
M  V30 73 1 35 73
M  V30 74 1 35 74
M  V30 75 1 35 75
M  V30 76 1 38 76
M  V30 77 1 38 77
M  V30 78 1 38 78
M  V30 79 1 39 79
M  V30 80 1 39 80
M  V30 81 1 39 81
M  V30 82 1 40 82
M  V30 83 1 40 83
M  V30 84 1 40 84
M  V30 END BOND
M  V30 BEGIN COLLECTION
M  V30 MDLV30/STERAC1 ATOMS=(1 18)
M  V30 END COLLECTION
M  V30 END CTAB
M  END
>  <level_0>
832

>  <index>
832

>  <NO.>
833

>  <Name>
zipr-dopa(p)2

>  <SMILES>
C/C(=C(\CCOC(=O)C(N)Cc1ccc(OC(=O)C(C)(C)C)c(OC(=O)C(C)(C)C)c1)SSC(C)C)N(C)C=O

>  <logBB>
0.53

>  <Class>
1

>  <MW>
596.26

>  <nHBAcc>
10

>  <nHBDon>
1

>  <SLogP>
5.5

>  <TopoPSA>
125.23

>  <MMFF94 Energy>
136.72

$$$$
CCC1(O)CC(OC2CC(N3CCOCC3)C(O)C(C)O2)c2c(O)c3c(c(O)c2C1O)C(=O)c1cccc(O)c1C3=O
Actelion Java MolfileCreator 2.0

  0  0  0  0  0  0              0 V3000
M  V30 BEGIN CTAB
M  V30 COUNTS 77 82 0 0 0
M  V30 BEGIN ATOM
M  V30 1 O 3.3107 1.2102 -1.1295 0
M  V30 2 C 3.5522 0.0122 -1.0133 0
M  V30 3 C 2.4154 -0.9284 -1.1485 0
M  V30 4 C 4.9176 -0.5036 -0.7428 0
M  V30 5 C 1.1179 -0.4512 -1.4039 0
M  V30 6 C 2.6181 -2.2959 -1.0261 0
M  V30 7 C 6.027 0.3435 -0.5868 0
M  V30 8 C 5.1103 -1.8823 -0.6409 0
M  V30 9 O 0.8764 0.8871 -1.6006 0
M  V30 10 C 0.0091 -1.3187 -1.4926 0
M  V30 11 C 3.9781 -2.8133 -0.7902 0
M  V30 12 C 1.5247 -3.175 -1.1389 0
M  V30 13 O 5.8902 1.6996 -0.6708 0
M  V30 14 C 7.2993 -0.181 -0.3383 0
M  V30 15 C 6.3868 -2.4098 -0.392 0
M  V30 16 C 0.2074 -2.7072 -1.3402 0
M  V30 17 C -1.3716 -0.7332 -1.7129 0
M  V30 18 O 4.1565 -4.0266 -0.7202 0
M  V30 19 O 1.696 -4.54 -1.0568 0
M  V30 20 C 7.4784 -1.5586 -0.2417 0
M  V30 21 C -0.9501 -3.6955 -1.4727 0
M  V30 22 O -1.8194 -0.252 -0.4476 0
M  V30 23 C -2.3486 -1.76 -2.2819 0
M  V30 24 O -0.8586 -4.7051 -0.4642 0
M  V30 25 C -2.3861 -3.0785 -1.4872 0
M  V30 26 C -2.7394 0.8351 -0.5215 0
M  V30 27 O -3.2455 -3.9512 -2.2588 0
M  V30 28 C -3.0125 -2.8978 -0.0775 0
M  V30 29 O -3.7783 0.6381 0.4397 0
M  V30 30 C -2.0208 2.1703 -0.3061 0
M  V30 31 C -3.6488 -4.138 0.5469 0
M  V30 32 C -3.3025 0.6596 1.7942 0
M  V30 33 C -1.4594 2.2393 1.1258 0
M  V30 34 C -2.6317 2.0135 2.1263 0
M  V30 35 C -4.4996 0.3591 2.6901 0
M  V30 36 N -0.6178 3.4227 1.4552 0
M  V30 37 O -3.5959 3.0727 2.0274 0
M  V30 38 C -1.2193 4.731 1.1272 0
M  V30 39 C 0.7111 3.3432 0.8061 0
M  V30 40 C -0.2813 5.8864 1.5236 0
M  V30 41 C 1.605 4.5252 1.2125 0
M  V30 42 O 0.9931 5.7774 0.8763 0
M  V30 43 H 1.7254 1.3778 -1.4966 0
M  V30 44 H 6.7483 2.139 -0.5559 0
M  V30 45 H 8.1611 0.4703 -0.2164 0
M  V30 46 H 6.5348 -3.4862 -0.3133 0
M  V30 47 H -1.2976 0.0934 -2.4319 0
M  V30 48 H 2.6545 -4.7308 -0.9231 0
M  V30 49 H 8.4669 -1.9698 -0.0482 0
M  V30 50 H -0.8047 -4.2109 -2.4325 0
M  V30 51 H -3.3614 -1.3402 -2.3344 0
M  V30 52 H -2.0725 -1.9827 -3.3227 0
M  V30 53 H 0.054 -5.0498 -0.5187 0
M  V30 54 H -3.2355 0.8529 -1.4985 0
M  V30 55 H -4.1606 -3.6444 -2.138 0
M  V30 56 H -3.8158 -2.1528 -0.1434 0
M  V30 57 H -2.2681 -2.4973 0.6198 0
M  V30 58 H -2.7376 2.9838 -0.4688 0
M  V30 59 H -1.2211 2.2798 -1.0427 0
M  V30 60 H -4.4775 -4.5136 -0.0608 0
M  V30 61 H -2.935 -4.9504 0.6929 0
M  V30 62 H -4.0581 -3.8828 1.5306 0
M  V30 63 H -2.5766 -0.1519 1.93 0
M  V30 64 H -0.7994 1.3711 1.2669 0
M  V30 65 H -2.2478 2.0035 3.1535 0
M  V30 66 H -4.8832 -0.6451 2.4775 0
M  V30 67 H -5.3292 1.0486 2.501 0
M  V30 68 H -4.2273 0.408 3.7486 0
M  V30 69 H -4.2309 2.96 2.7535 0
M  V30 70 H -2.1595 4.8829 1.6609 0
M  V30 71 H -1.4166 4.8028 0.051 0
M  V30 72 H 1.2169 2.4138 1.0916 0
M  V30 73 H 0.6015 3.3532 -0.2843 0
M  V30 74 H -0.1325 5.9209 2.6099 0
M  V30 75 H -0.7236 6.8409 1.2201 0
M  V30 76 H 2.5584 4.4692 0.6773 0
M  V30 77 H 1.8249 4.5069 2.2868 0
M  V30 END ATOM
M  V30 BEGIN BOND
M  V30 1 2 1 2
M  V30 2 1 2 3
M  V30 3 1 2 4
M  V30 4 2 3 5
M  V30 5 1 3 6
M  V30 6 2 4 7
M  V30 7 1 4 8
M  V30 8 1 5 9
M  V30 9 1 5 10
M  V30 10 1 6 11
M  V30 11 2 6 12
M  V30 12 1 7 13
M  V30 13 1 7 14
M  V30 14 2 8 15
M  V30 15 2 10 16
M  V30 16 1 10 17
M  V30 17 2 11 18
M  V30 18 1 12 19
M  V30 19 2 14 20
M  V30 20 1 16 21
M  V30 21 1 17 22
M  V30 22 1 17 23
M  V30 23 1 21 24
M  V30 24 1 21 25
M  V30 25 1 22 26
M  V30 26 1 25 27
M  V30 27 1 25 28
M  V30 28 1 26 29
M  V30 29 1 26 30
M  V30 30 1 28 31
M  V30 31 1 29 32
M  V30 32 1 30 33
M  V30 33 1 32 34
M  V30 34 1 32 35
M  V30 35 1 33 36
M  V30 36 1 34 37
M  V30 37 1 36 38
M  V30 38 1 36 39
M  V30 39 1 38 40
M  V30 40 1 39 41
M  V30 41 1 40 42
M  V30 42 1 8 11
M  V30 43 1 12 16
M  V30 44 1 15 20
M  V30 45 1 23 25
M  V30 46 1 33 34
M  V30 47 1 41 42
M  V30 48 1 9 43
M  V30 49 1 13 44
M  V30 50 1 14 45
M  V30 51 1 15 46
M  V30 52 1 17 47
M  V30 53 1 19 48
M  V30 54 1 20 49
M  V30 55 1 21 50
M  V30 56 1 23 51
M  V30 57 1 23 52
M  V30 58 1 24 53
M  V30 59 1 26 54
M  V30 60 1 27 55
M  V30 61 1 28 56
M  V30 62 1 28 57
M  V30 63 1 30 58
M  V30 64 1 30 59
M  V30 65 1 31 60
M  V30 66 1 31 61
M  V30 67 1 31 62
M  V30 68 1 32 63
M  V30 69 1 33 64
M  V30 70 1 34 65
M  V30 71 1 35 66
M  V30 72 1 35 67
M  V30 73 1 35 68
M  V30 74 1 37 69
M  V30 75 1 38 70
M  V30 76 1 38 71
M  V30 77 1 39 72
M  V30 78 1 39 73
M  V30 79 1 40 74
M  V30 80 1 40 75
M  V30 81 1 41 76
M  V30 82 1 41 77
M  V30 END BOND
M  V30 END CTAB
M  END
>  <level_0>
841

>  <index>
841

>  <NO.>
842

>  <Name>
antibiotic mx 2

>  <SMILES>
CCC1(O)CC(OC2CC(N3CCOCC3)C(O)C(C)O2)c2c(O)c3c(c(O)c2C1O)C(=O)c1cccc(O)c1C3=O

>  <logBB>
0.56

>  <Class>
1

>  <MW>
585.22

>  <nHBAcc>
12

>  <nHBDon>
6

>  <SLogP>
1.41

>  <TopoPSA>
186.45

>  <MMFF94 Energy>
189.35

$$$$
c1cnc(N2CCNCC2)nc1
Actelion Java MolfileCreator 2.0

  0  0  0  0  0  0              0 V3000
M  V30 BEGIN CTAB
M  V30 COUNTS 24 25 0 0 0
M  V30 BEGIN ATOM
M  V30 1 N 0.0787 -2.0499 0.6304 0
M  V30 2 C 0.2785 -0.7365 0.8424 0
M  V30 3 C 0.3483 -2.9001 1.6388 0
M  V30 4 N 0.7346 -0.2629 2.0162 0
M  V30 5 N 0.0204 0.1532 -0.1826 0
M  V30 6 C 0.8136 -2.4999 2.8631 0
M  V30 7 C 0.9912 -1.1486 2.9972 0
M  V30 8 C -0.7856 -0.3238 -1.306 0
M  V30 9 C -0.0903 1.5703 0.1628 0
M  V30 10 C -0.6965 0.6418 -2.5078 0
M  V30 11 C -0.0292 2.4595 -1.0981 0
M  V30 12 N -0.9641 2.0503 -2.1626 0
M  V30 13 H 0.1712 -3.9481 1.4182 0
M  V30 14 H 1.0252 -3.1962 3.6609 0
M  V30 15 H 1.3571 -0.7172 3.9237 0
M  V30 16 H -1.8326 -0.4185 -0.9906 0
M  V30 17 H -0.4482 -1.3069 -1.656 0
M  V30 18 H 0.7252 1.8898 0.823 0
M  V30 19 H -1.0381 1.7457 0.6878 0
M  V30 20 H 0.3012 0.5674 -2.9591 0
M  V30 21 H -1.4149 0.3255 -3.272 0
M  V30 22 H 0.9931 2.4522 -1.4974 0
M  V30 23 H -0.2517 3.4942 -0.8147 0
M  V30 24 H -0.8015 2.6288 -2.9855 0
M  V30 END ATOM
M  V30 BEGIN BOND
M  V30 1 2 1 2
M  V30 2 1 1 3
M  V30 3 1 2 4
M  V30 4 1 2 5
M  V30 5 2 3 6
M  V30 6 2 4 7
M  V30 7 1 5 8
M  V30 8 1 5 9
M  V30 9 1 8 10
M  V30 10 1 9 11
M  V30 11 1 10 12
M  V30 12 1 6 7
M  V30 13 1 11 12
M  V30 14 1 3 13
M  V30 15 1 6 14
M  V30 16 1 7 15
M  V30 17 1 8 16
M  V30 18 1 8 17
M  V30 19 1 9 18
M  V30 20 1 9 19
M  V30 21 1 10 20
M  V30 22 1 10 21
M  V30 23 1 11 22
M  V30 24 1 11 23
M  V30 25 1 12 24
M  V30 END BOND
M  V30 END CTAB
M  END
>  <level_0>
871

>  <index>
871

>  <NO.>
872

>  <Name>
1-(2-pyrimidinyl)-piperazine

>  <SMILES>
c1cnc(N2CCNCC2)nc1

>  <logBB>
0.6

>  <Class>
1

>  <MW>
164.11

>  <nHBAcc>
4

>  <nHBDon>
1

>  <SLogP>
-0.11

>  <TopoPSA>
41.05

>  <MMFF94 Energy>
-2.7278

$$$$
Cc1nc(Nc2ccc(F)cc2)nc(N2CCc3ccccc3C2C)c1C
Actelion Java MolfileCreator 2.0

  0  0  0  0  0  0              0 V3000
M  V30 BEGIN CTAB
M  V30 COUNTS 50 53 0 0 0
M  V30 BEGIN ATOM
M  V30 1 F -3.5889 7.1878 2.7905 0
M  V30 2 C -3.065 6.0641 2.2843 0
M  V30 3 C -3.3942 5.6744 0.9951 0
M  V30 4 C -2.1991 5.3023 3.0542 0
M  V30 5 C -2.8446 4.5006 0.4716 0
M  V30 6 C -1.6521 4.1283 2.5246 0
M  V30 7 C -1.9627 3.7049 1.2261 0
M  V30 8 N -1.4504 2.5431 0.642 0
M  V30 9 C -0.592 1.5355 1.0741 0
M  V30 10 N -0.3503 0.5801 0.1682 0
M  V30 11 N -0.066 1.5294 2.3012 0
M  V30 12 C 0.4636 -0.4376 0.503 0
M  V30 13 C 0.7627 0.5193 2.631 0
M  V30 14 N 0.6633 -1.451 -0.4427 0
M  V30 15 C 1.088 -0.4984 1.7456 0
M  V30 16 C 1.3264 0.5769 4.0212 0
M  V30 17 C 0.7902 -1.018 -1.8505 0 CFG=2
M  V30 18 C -0.1406 -2.646 -0.1869 0
M  V30 19 C 2.0342 -1.599 2.1207 0
M  V30 20 C 0.7039 -2.1872 -2.8408 0
M  V30 21 C 2.1344 -0.2891 -2.0219 0
M  V30 22 C 0.4599 -3.8281 -0.9418 0
M  V30 23 C 0.5515 -3.5197 -2.4115 0
M  V30 24 C 0.7448 -1.9325 -4.2244 0
M  V30 25 C 0.508 -4.5631 -3.348 0
M  V30 26 C 0.6833 -2.9745 -5.151 0
M  V30 27 C 0.5733 -4.2898 -4.7123 0
M  V30 28 H -4.0733 6.2809 0.4054 0
M  V30 29 H -1.9504 5.6198 4.0615 0
M  V30 30 H -3.1137 4.2089 -0.5407 0
M  V30 31 H -0.9772 3.5547 3.1524 0
M  V30 32 H -1.7331 2.3368 -0.3043 0
M  V30 33 H 2.4046 0.7601 3.9875 0
M  V30 34 H 0.866 1.3893 4.5939 0
M  V30 35 H 1.1298 -0.3575 4.5559 0
M  V30 36 H -0.0357 -0.3426 -2.1112 0
M  V30 37 H -1.1786 -2.4718 -0.5021 0
M  V30 38 H -0.1674 -2.9014 0.8792 0
M  V30 39 H 2.479 -2.0783 1.2431 0
M  V30 40 H 2.8744 -1.2145 2.7077 0
M  V30 41 H 1.5116 -2.3608 2.7075 0
M  V30 42 H 2.975 -0.9571 -1.7992 0
M  V30 43 H 2.2136 0.5736 -1.352 0
M  V30 44 H 2.2696 0.0868 -3.0411 0
M  V30 45 H -0.1678 -4.7112 -0.776 0
M  V30 46 H 1.4662 -4.0505 -0.5668 0
M  V30 47 H 0.826 -0.9121 -4.593 0
M  V30 48 H 0.4139 -5.5948 -3.0169 0
M  V30 49 H 0.7239 -2.7578 -6.2152 0
M  V30 50 H 0.5318 -5.1023 -5.4326 0
M  V30 END ATOM
M  V30 BEGIN BOND
M  V30 1 1 1 2
M  V30 2 2 2 3
M  V30 3 1 2 4
M  V30 4 1 3 5
M  V30 5 2 4 6
M  V30 6 2 5 7
M  V30 7 1 7 8
M  V30 8 1 8 9
M  V30 9 2 9 10
M  V30 10 1 9 11
M  V30 11 1 10 12
M  V30 12 2 11 13
M  V30 13 1 12 14
M  V30 14 2 12 15
M  V30 15 1 13 16
M  V30 16 1 14 17
M  V30 17 1 14 18
M  V30 18 1 15 19
M  V30 19 1 17 20
M  V30 20 1 17 21
M  V30 21 1 18 22
M  V30 22 2 20 23
M  V30 23 1 20 24
M  V30 24 1 23 25
M  V30 25 2 24 26
M  V30 26 2 25 27
M  V30 27 1 6 7
M  V30 28 1 13 15
M  V30 29 1 22 23
M  V30 30 1 26 27
M  V30 31 1 3 28
M  V30 32 1 4 29
M  V30 33 1 5 30
M  V30 34 1 6 31
M  V30 35 1 8 32
M  V30 36 1 16 33
M  V30 37 1 16 34
M  V30 38 1 16 35
M  V30 39 1 17 36
M  V30 40 1 18 37
M  V30 41 1 18 38
M  V30 42 1 19 39
M  V30 43 1 19 40
M  V30 44 1 19 41
M  V30 45 1 21 42
M  V30 46 1 21 43
M  V30 47 1 21 44
M  V30 48 1 22 45
M  V30 49 1 22 46
M  V30 50 1 24 47
M  V30 51 1 25 48
M  V30 52 1 26 49
M  V30 53 1 27 50
M  V30 END BOND
M  V30 BEGIN COLLECTION
M  V30 MDLV30/STERAC1 ATOMS=(1 17)
M  V30 END COLLECTION
M  V30 END CTAB
M  END
>  <level_0>
889

>  <index>
889

>  <NO.>
890

>  <Name>
revaprazan

>  <SMILES>
Cc1nc(Nc2ccc(F)cc2)nc(N2CCc3ccccc3C2C)c1C

>  <logBB>
0.68

>  <Class>
1

>  <MW>
362.19

>  <nHBAcc>
4

>  <nHBDon>
1

>  <SLogP>
5.1

>  <TopoPSA>
41.05

>  <MMFF94 Energy>
-29.573

$$$$
Cc1ccccc1-c1ccncc1C(=O)N(C)Cc1cc(C(F)(F)F)cc(C(F)(F)F)c1
Actelion Java MolfileCreator 2.0

  0  0  0  0  0  0              0 V3000
M  V30 BEGIN CTAB
M  V30 COUNTS 50 52 0 0 0
M  V30 BEGIN ATOM
M  V30 1 F 1.7031 2.8398 4.9534 0
M  V30 2 C 0.6154 2.6076 4.1679 0
M  V30 3 F 0.5098 3.6866 3.344 0
M  V30 4 F -0.463 2.6647 4.9984 0
M  V30 5 C 0.7029 1.3107 3.4007 0
M  V30 6 C 1.9478 0.7994 3.001 0
M  V30 7 C -0.4638 0.6218 3.0339 0
M  V30 8 C 2.0373 -0.3812 2.2463 0
M  V30 9 C -0.3986 -0.564 2.2894 0
M  V30 10 C 0.857 -1.0543 1.9005 0
M  V30 11 C 3.3855 -0.9195 1.8326 0
M  V30 12 C -1.6594 -1.2856 1.8671 0
M  V30 13 F 4.244 0.0639 1.4374 0
M  V30 14 F 4.0136 -1.57 2.851 0
M  V30 15 F 3.3357 -1.8027 0.7978 0
M  V30 16 N -2.0824 -0.8979 0.5254 0
M  V30 17 C -1.641 -1.6694 -0.5461 0
M  V30 18 C -2.8856 0.3124 0.4091 0
M  V30 19 O -1.042 -2.7351 -0.4234 0
M  V30 20 C -1.9296 -1.2189 -1.9135 0
M  V30 21 C -1.1779 -0.2376 -2.5761 0
M  V30 22 C -2.9833 -1.8331 -2.5772 0
M  V30 23 C -0.0135 0.4362 -1.978 0
M  V30 24 C -1.5685 0.0976 -3.8815 0
M  V30 25 N -3.3712 -1.5084 -3.8327 0
M  V30 26 C 1.2702 -0.1517 -1.9459 0
M  V30 27 C -0.1716 1.7345 -1.4556 0
M  V30 28 C -2.6521 -0.5516 -4.4561 0
M  V30 29 C 2.3399 0.5558 -1.3698 0
M  V30 30 C 1.535 -1.5385 -2.4714 0
M  V30 31 C 0.8999 2.4245 -0.8879 0
M  V30 32 C 2.1563 1.8337 -0.8448 0
M  V30 33 H 2.8611 1.3313 3.2726 0
M  V30 34 H -1.4349 1.0201 3.3276 0
M  V30 35 H 0.9118 -1.9665 1.3032 0
M  V30 36 H -2.4759 -1.0822 2.5706 0
M  V30 37 H -1.484 -2.3671 1.9139 0
M  V30 38 H -3.7422 0.2319 1.0852 0
M  V30 39 H -2.2791 1.1744 0.6979 0
M  V30 40 H -3.265 0.4687 -0.6015 0
M  V30 41 H -3.5644 -2.62 -2.1035 0
M  V30 42 H -1.0261 0.8475 -4.4504 0
M  V30 43 H -1.1449 2.22 -1.4879 0
M  V30 44 H -2.9734 -0.3146 -5.4668 0
M  V30 45 H 3.3312 0.1073 -1.3277 0
M  V30 46 H 0.9723 -1.7347 -3.3889 0
M  V30 47 H 1.2734 -2.2841 -1.7159 0
M  V30 48 H 2.5937 -1.6655 -2.723 0
M  V30 49 H 0.7532 3.4225 -0.4832 0
M  V30 50 H 2.9961 2.365 -0.4044 0
M  V30 END ATOM
M  V30 BEGIN BOND
M  V30 1 1 1 2
M  V30 2 1 2 3
M  V30 3 1 2 4
M  V30 4 1 2 5
M  V30 5 2 5 6
M  V30 6 1 5 7
M  V30 7 1 6 8
M  V30 8 2 7 9
M  V30 9 2 8 10
M  V30 10 1 8 11
M  V30 11 1 9 12
M  V30 12 1 11 13
M  V30 13 1 11 14
M  V30 14 1 11 15
M  V30 15 1 12 16
M  V30 16 1 16 17
M  V30 17 1 16 18
M  V30 18 2 17 19
M  V30 19 1 17 20
M  V30 20 2 20 21
M  V30 21 1 20 22
M  V30 22 1 21 23
M  V30 23 1 21 24
M  V30 24 2 22 25
M  V30 25 2 23 26
M  V30 26 1 23 27
M  V30 27 2 24 28
M  V30 28 1 26 29
M  V30 29 1 26 30
M  V30 30 2 27 31
M  V30 31 2 29 32
M  V30 32 1 9 10
M  V30 33 1 25 28
M  V30 34 1 31 32
M  V30 35 1 6 33
M  V30 36 1 7 34
M  V30 37 1 10 35
M  V30 38 1 12 36
M  V30 39 1 12 37
M  V30 40 1 18 38
M  V30 41 1 18 39
M  V30 42 1 18 40
M  V30 43 1 22 41
M  V30 44 1 24 42
M  V30 45 1 27 43
M  V30 46 1 28 44
M  V30 47 1 29 45
M  V30 48 1 30 46
M  V30 49 1 30 47
M  V30 50 1 30 48
M  V30 51 1 31 49
M  V30 52 1 32 50
M  V30 END BOND
M  V30 END CTAB
M  END
>  <level_0>
890

>  <index>
890

>  <NO.>
891

>  <Name>
chembl204958

>  <SMILES>
Cc1ccccc1-c1ccncc1C(=O)N(C)Cc1cc(C(F)(F)F)cc(C(F)(F)F)c1

>  <logBB>
0.68

>  <Class>
1

>  <MW>
452.13

>  <nHBAcc>
2

>  <nHBDon>
0

>  <SLogP>
6.37

>  <TopoPSA>
33.2

>  <MMFF94 Energy>
109.47

$$$$
Oc1ccc2c(Oc3ccc(OCCN4CCCCC4)cc3)c(-c3cccc(F)c3)ccc2c1
Actelion Java MolfileCreator 2.0

  0  0  0  0  0  0              0 V3000
M  V30 BEGIN CTAB
M  V30 COUNTS 62 66 0 0 0
M  V30 BEGIN ATOM
M  V30 1 F -0.3199 -1.1201 4.005 0
M  V30 2 C 0.9347 -0.9858 3.5549 0
M  V30 3 C 1.3871 0.2673 3.1542 0
M  V30 4 C 1.7614 -2.101 3.498 0
M  V30 5 C 2.6964 0.4246 2.6768 0
M  V30 6 C 3.0654 -1.9627 3.0302 0
M  V30 7 C 3.1869 1.7411 2.2397 0
M  V30 8 C 3.5285 -0.7078 2.6232 0
M  V30 9 C 3.5044 2.0303 0.8941 0
M  V30 10 C 3.3693 2.7573 3.1876 0
M  V30 11 O 3.3422 1.0596 -0.0809 0
M  V30 12 C 4.0469 3.281 0.5021 0
M  V30 13 C 3.874 4.0068 2.818 0
M  V30 14 C 2.0485 0.7709 -0.4636 0
M  V30 15 C 4.2228 4.2807 1.4879 0
M  V30 16 C 4.4118 3.5814 -0.8287 0
M  V30 17 C 1.8016 -0.5503 -0.8386 0
M  V30 18 C 1.0207 1.712 -0.5288 0
M  V30 19 C 4.7456 5.535 1.1277 0
M  V30 20 C 4.9305 4.8299 -1.1736 0
M  V30 21 C 0.522 -0.9441 -1.2431 0
M  V30 22 C -0.2555 1.3159 -0.9366 0
M  V30 23 C 5.0927 5.7962 -0.1941 0
M  V30 24 C -0.5146 -0.0117 -1.2874 0
M  V30 25 O 5.6019 7.0032 -0.5718 0
M  V30 26 O -1.8065 -0.2617 -1.6596 0
M  V30 27 C -2.1528 -1.6253 -1.9266 0
M  V30 28 C -3.652 -1.6767 -2.266 0
M  V30 29 N -4.1309 -3.0096 -2.6771 0
M  V30 30 C -5.4652 -2.9365 -3.2964 0
M  V30 31 C -4.1273 -4.0034 -1.5925 0
M  V30 32 C -6.5988 -2.6635 -2.3042 0
M  V30 33 C -5.2071 -3.7768 -0.5311 0
M  V30 34 C -6.5912 -3.6756 -1.1635 0
M  V30 35 H 0.7052 1.1114 3.2015 0
M  V30 36 H 1.3838 -3.0669 3.8168 0
M  V30 37 H 3.7222 -2.827 2.9796 0
M  V30 38 H 4.5491 -0.6134 2.2557 0
M  V30 39 H 3.1327 2.5746 4.2347 0
M  V30 40 H 4.0039 4.7637 3.5893 0
M  V30 41 H 4.2909 2.836 -1.6126 0
M  V30 42 H 2.6047 -1.2814 -0.8013 0
M  V30 43 H 1.1906 2.7533 -0.2733 0
M  V30 44 H 4.8793 6.3011 1.8862 0
M  V30 45 H 5.2048 5.0431 -2.2027 0
M  V30 46 H 0.3721 -1.9826 -1.5174 0
M  V30 47 H -1.0563 2.0501 -0.9815 0
M  V30 48 H 5.6633 7.576 0.2098 0
M  V30 49 H -1.9453 -2.2321 -1.0387 0
M  V30 50 H -1.575 -1.9948 -2.7824 0
M  V30 51 H -4.2265 -1.2696 -1.4251 0
M  V30 52 H -3.81 -0.9684 -3.0909 0
M  V30 53 H -5.6608 -3.8897 -3.8052 0
M  V30 54 H -5.4764 -2.1788 -4.0896 0
M  V30 55 H -3.1444 -4.0617 -1.1136 0
M  V30 56 H -4.2796 -4.9945 -2.0405 0
M  V30 57 H -7.5617 -2.7083 -2.826 0
M  V30 58 H -6.509 -1.6492 -1.8975 0
M  V30 59 H -4.9934 -2.8651 0.0387 0
M  V30 60 H -5.1944 -4.605 0.1867 0
M  V30 61 H -7.3316 -3.3952 -0.4062 0
M  V30 62 H -6.8856 -4.6591 -1.5502 0
M  V30 END ATOM
M  V30 BEGIN BOND
M  V30 1 1 1 2
M  V30 2 2 2 3
M  V30 3 1 2 4
M  V30 4 1 3 5
M  V30 5 2 4 6
M  V30 6 1 5 7
M  V30 7 2 5 8
M  V30 8 2 7 9
M  V30 9 1 7 10
M  V30 10 1 9 11
M  V30 11 1 9 12
M  V30 12 2 10 13
M  V30 13 1 11 14
M  V30 14 1 12 15
M  V30 15 2 12 16
M  V30 16 2 14 17
M  V30 17 1 14 18
M  V30 18 2 15 19
M  V30 19 1 16 20
M  V30 20 1 17 21
M  V30 21 2 18 22
M  V30 22 1 19 23
M  V30 23 2 21 24
M  V30 24 1 23 25
M  V30 25 1 24 26
M  V30 26 1 26 27
M  V30 27 1 27 28
M  V30 28 1 28 29
M  V30 29 1 29 30
M  V30 30 1 29 31
M  V30 31 1 30 32
M  V30 32 1 31 33
M  V30 33 1 32 34
M  V30 34 1 6 8
M  V30 35 1 13 15
M  V30 36 2 20 23
M  V30 37 1 22 24
M  V30 38 1 33 34
M  V30 39 1 3 35
M  V30 40 1 4 36
M  V30 41 1 6 37
M  V30 42 1 8 38
M  V30 43 1 10 39
M  V30 44 1 13 40
M  V30 45 1 16 41
M  V30 46 1 17 42
M  V30 47 1 18 43
M  V30 48 1 19 44
M  V30 49 1 20 45
M  V30 50 1 21 46
M  V30 51 1 22 47
M  V30 52 1 25 48
M  V30 53 1 27 49
M  V30 54 1 27 50
M  V30 55 1 28 51
M  V30 56 1 28 52
M  V30 57 1 30 53
M  V30 58 1 30 54
M  V30 59 1 31 55
M  V30 60 1 31 56
M  V30 61 1 32 57
M  V30 62 1 32 58
M  V30 63 1 33 59
M  V30 64 1 33 60
M  V30 65 1 34 61
M  V30 66 1 34 62
M  V30 END BOND
M  V30 END CTAB
M  END
>  <level_0>
902

>  <index>
902

>  <NO.>
903

>  <Name>
chembl390021

>  <SMILES>
Oc1ccc2c(Oc3ccc(OCCN4CCCCC4)cc3)c(-c3cccc(F)c3)ccc2c1

>  <logBB>
0.73

>  <Class>
1

>  <MW>
457.21

>  <nHBAcc>
4

>  <nHBDon>
1

>  <SLogP>
7.01

>  <TopoPSA>
41.93

>  <MMFF94 Energy>
95.005

$$$$
CCCCN1C2CC[C@@H]1C[C@@H](OC(c1ccc(F)cc1)c1ccc(F)cc1)C2
Actelion Java MolfileCreator 2.0

  0  0  0  0  0  0              0 V3000
M  V30 BEGIN CTAB
M  V30 COUNTS 57 60 0 0 0
M  V30 BEGIN ATOM
M  V30 1 F 6.4973 -0.4001 2.3225 0
M  V30 2 C 5.3122 -0.6909 1.7697 0
M  V30 3 C 4.1481 -0.4888 2.4992 0
M  V30 4 C 5.266 -1.1919 0.475 0
M  V30 5 C 2.9129 -0.7922 1.9233 0
M  V30 6 C 4.0317 -1.4954 -0.1029 0
M  V30 7 C 2.8355 -1.2952 0.6118 0
M  V30 8 C 1.5001 -1.6494 -0.0344 0
M  V30 9 O 0.4453 -0.9084 0.598 0
M  V30 10 C 1.198 -3.1396 0.0502 0
M  V30 11 C -0.659 -0.601 -0.2595 0 CFG=1
M  V30 12 C 0.7434 -3.7193 1.2488 0
M  V30 13 C 1.3835 -3.9644 -1.0733 0
M  V30 14 C -1.8862 -0.3572 0.6313 0
M  V30 15 C -0.3454 0.6183 -1.1416 0
M  V30 16 C 0.4753 -5.0868 1.3201 0
M  V30 17 C 1.1145 -5.3324 -0.999 0
M  V30 18 C -3.0123 0.3907 -0.1023 0
M  V30 19 C -1.6153 1.2765 -1.7098 0 CFG=2
M  V30 20 C 0.663 -5.88 0.1957 0
M  V30 21 N -2.5553 1.6731 -0.6554 0
M  V30 22 C -3.4159 -0.3241 -1.3976 0
M  V30 23 C -2.4846 0.262 -2.4666 0
M  V30 24 F 0.4051 -7.1927 0.263 0
M  V30 25 C -2.0853 2.641 0.334 0
M  V30 26 C -1.817 4.0157 -0.292 0
M  V30 27 C -1.4374 5.0435 0.776 0
M  V30 28 C -1.167 6.4089 0.1641 0
M  V30 29 H 4.2068 -0.0985 3.5101 0
M  V30 30 H 6.1896 -1.3455 -0.0735 0
M  V30 31 H 2.0057 -0.6327 2.5036 0
M  V30 32 H 4.0082 -1.8936 -1.1149 0
M  V30 33 H 1.5621 -1.3434 -1.0865 0
M  V30 34 H -0.8718 -1.4686 -0.8972 0
M  V30 35 H 0.5955 -3.0995 2.1314 0
M  V30 36 H 1.7392 -3.5473 -2.0127 0
M  V30 37 H -1.5931 0.186 1.5386 0
M  V30 38 H -2.2568 -1.3261 0.9908 0
M  V30 39 H 0.2487 1.3479 -0.5777 0
M  V30 40 H 0.2993 0.307 -1.9726 0
M  V30 41 H 0.124 -5.5355 2.2436 0
M  V30 42 H 1.2555 -5.9745 -1.8626 0
M  V30 43 H -3.8791 0.5137 0.5563 0
M  V30 44 H -1.3485 2.1074 -2.3708 0
M  V30 45 H -4.4562 -0.0916 -1.6573 0
M  V30 46 H -3.3277 -1.4133 -1.3296 0
M  V30 47 H -3.0865 0.7673 -3.2323 0
M  V30 48 H -1.8964 -0.5138 -2.9675 0
M  V30 49 H -1.1881 2.3037 0.8638 0
M  V30 50 H -2.8678 2.7645 1.0938 0
M  V30 51 H -2.7104 4.3597 -0.8283 0
M  V30 52 H -1.0035 3.9475 -1.0236 0
M  V30 53 H -2.2457 5.1332 1.5113 0
M  V30 54 H -0.5438 4.7074 1.3148 0
M  V30 55 H -0.8983 7.1276 0.9448 0
M  V30 56 H -0.3409 6.3611 -0.5524 0
M  V30 57 H -2.0524 6.7879 -0.3562 0
M  V30 END ATOM
M  V30 BEGIN BOND
M  V30 1 1 1 2
M  V30 2 2 2 3
M  V30 3 1 2 4
M  V30 4 1 3 5
M  V30 5 2 4 6
M  V30 6 2 5 7
M  V30 7 1 7 8
M  V30 8 1 8 9
M  V30 9 1 8 10
M  V30 10 1 9 11
M  V30 11 2 10 12
M  V30 12 1 10 13
M  V30 13 1 11 14
M  V30 14 1 11 15
M  V30 15 1 12 16
M  V30 16 2 13 17
M  V30 17 1 14 18
M  V30 18 1 15 19
M  V30 19 2 16 20
M  V30 20 1 18 21
M  V30 21 1 18 22
M  V30 22 1 19 23
M  V30 23 1 20 24
M  V30 24 1 21 25
M  V30 25 1 25 26
M  V30 26 1 26 27
M  V30 27 1 27 28
M  V30 28 1 6 7
M  V30 29 1 17 20
M  V30 30 1 19 21
M  V30 31 1 22 23
M  V30 32 1 3 29
M  V30 33 1 4 30
M  V30 34 1 5 31
M  V30 35 1 6 32
M  V30 36 1 8 33
M  V30 37 1 11 34
M  V30 38 1 12 35
M  V30 39 1 13 36
M  V30 40 1 14 37
M  V30 41 1 14 38
M  V30 42 1 15 39
M  V30 43 1 15 40
M  V30 44 1 16 41
M  V30 45 1 17 42
M  V30 46 1 18 43
M  V30 47 1 19 44
M  V30 48 1 22 45
M  V30 49 1 22 46
M  V30 50 1 23 47
M  V30 51 1 23 48
M  V30 52 1 25 49
M  V30 53 1 25 50
M  V30 54 1 26 51
M  V30 55 1 26 52
M  V30 56 1 27 53
M  V30 57 1 27 54
M  V30 58 1 28 55
M  V30 59 1 28 56
M  V30 60 1 28 57
M  V30 END BOND
M  V30 BEGIN COLLECTION
M  V30 MDLV30/STEABS ATOMS=(2 11 19)
M  V30 END COLLECTION
M  V30 END CTAB
M  END
>  <level_0>
905

>  <index>
905

>  <NO.>
906

>  <Name>
jhw 007

>  <SMILES>
CCCCN1C2CC[C@@H]1C[C@@H](OC(c1ccc(F)cc1)c1ccc(F)cc1)C2

>  <logBB>
0.74

>  <Class>
1

>  <MW>
385.22

>  <nHBAcc>
2

>  <nHBDon>
0

>  <SLogP>
5.87

>  <TopoPSA>
12.47

>  <MMFF94 Energy>
65.13

$$$$
COc1cccc(CC2CCN(C3CCC(OC)(c4ccc5c(c4)OCO5)CC3)CC2)c1
Actelion Java MolfileCreator 2.0

  0  0  0  0  0  0              0 V3000
M  V30 BEGIN CTAB
M  V30 COUNTS 67 71 0 0 0
M  V30 BEGIN ATOM
M  V30 1 O -0.1596 -4.0781 7.2053 0
M  V30 2 C 0.5301 -3.1263 6.522 0
M  V30 3 C 0.6454 -4.1921 8.3965 0
M  V30 4 C 1.6371 -2.6898 7.2044 0
M  V30 5 C 0.1967 -2.6212 5.2829 0
M  V30 6 O 1.7878 -3.3106 8.4042 0
M  V30 7 C 2.4689 -1.7248 6.6856 0
M  V30 8 C 1.0178 -1.6283 4.7024 0
M  V30 9 C 2.1545 -1.1931 5.4276 0
M  V30 10 C 0.6466 -1.0684 3.3171 0
M  V30 11 O -0.7664 -0.7669 3.2842 0
M  V30 12 C 1.4808 0.155 2.8571 0
M  V30 13 C 0.8581 -2.198 2.2721 0
M  V30 14 C -1.2037 0.3093 4.1045 0
M  V30 15 C 1.118 0.6224 1.4427 0
M  V30 16 C 0.5161 -1.759 0.8425 0
M  V30 17 C 1.3151 -0.5121 0.4216 0
M  V30 18 N 1.0396 -0.1601 -0.987 0
M  V30 19 C -0.2844 0.4291 -1.2251 0
M  V30 20 C 2.0951 0.6855 -1.5606 0
M  V30 21 C -0.5561 0.5748 -2.7251 0
M  V30 22 C 1.9091 0.8422 -3.0709 0
M  V30 23 C 0.5275 1.4159 -3.4158 0
M  V30 24 C 0.3431 1.4648 -4.9438 0
M  V30 25 C -0.8938 2.2153 -5.3791 0
M  V30 26 C -2.0302 1.5185 -5.8244 0
M  V30 27 C -0.924 3.615 -5.3329 0
M  V30 28 C -3.1793 2.2089 -6.2167 0
M  V30 29 C -2.0678 4.307 -5.7255 0
M  V30 30 O -4.3438 1.6463 -6.6632 0
M  V30 31 C -3.1892 3.6042 -6.1651 0
M  V30 32 C -4.391 0.2265 -6.7192 0
M  V30 33 H 0.0193 -3.9616 9.2663 0
M  V30 34 H 0.9997 -5.2258 8.4828 0
M  V30 35 H -0.6919 -2.9819 4.7728 0
M  V30 36 H 3.3406 -1.3876 7.2354 0
M  V30 37 H 2.8188 -0.4307 5.0295 0
M  V30 38 H 2.5504 -0.0925 2.8627 0
M  V30 39 H 1.3543 0.9981 3.5464 0
M  V30 40 H 1.8982 -2.5493 2.3024 0
M  V30 41 H 0.2248 -3.0639 2.5042 0
M  V30 42 H -2.2975 0.3063 4.1034 0
M  V30 43 H -0.8657 0.2041 5.1385 0
M  V30 44 H -0.8761 1.2688 3.6969 0
M  V30 45 H 0.0823 0.9793 1.4353 0
M  V30 46 H 1.7521 1.4791 1.188 0
M  V30 47 H 0.7335 -2.5884 0.1579 0
M  V30 48 H -0.5625 -1.5762 0.7816 0
M  V30 49 H 2.3706 -0.8164 0.4744 0
M  V30 50 H -0.3722 1.4143 -0.7504 0
M  V30 51 H -1.0756 -0.2034 -0.8106 0
M  V30 52 H 3.0779 0.2287 -1.3929 0
M  V30 53 H 2.1114 1.6759 -1.0892 0
M  V30 54 H -0.6078 -0.4211 -3.184 0
M  V30 55 H -1.5402 1.0386 -2.8584 0
M  V30 56 H 2.0407 -0.134 -3.5559 0
M  V30 57 H 2.694 1.4995 -3.464 0
M  V30 58 H 0.4764 2.4374 -3.0141 0
M  V30 59 H 1.2114 1.9524 -5.4068 0
M  V30 60 H 0.3255 0.4468 -5.3543 0
M  V30 61 H -1.9927 0.4343 -5.8506 0
M  V30 62 H -0.055 4.1727 -4.9913 0
M  V30 63 H -2.0881 5.3928 -5.6898 0
M  V30 64 H -4.0802 4.1474 -6.47 0
M  V30 65 H -3.6491 -0.1656 -7.4225 0
M  V30 66 H -5.3811 -0.0605 -7.0862 0
M  V30 67 H -4.2651 -0.2127 -5.724 0
M  V30 END ATOM
M  V30 BEGIN BOND
M  V30 1 1 1 2
M  V30 2 1 1 3
M  V30 3 2 2 4
M  V30 4 1 2 5
M  V30 5 1 3 6
M  V30 6 1 4 7
M  V30 7 2 5 8
M  V30 8 2 7 9
M  V30 9 1 8 10
M  V30 10 1 10 11
M  V30 11 1 10 12
M  V30 12 1 10 13
M  V30 13 1 11 14
M  V30 14 1 12 15
M  V30 15 1 13 16
M  V30 16 1 15 17
M  V30 17 1 17 18
M  V30 18 1 18 19
M  V30 19 1 18 20
M  V30 20 1 19 21
M  V30 21 1 20 22
M  V30 22 1 21 23
M  V30 23 1 23 24
M  V30 24 1 24 25
M  V30 25 2 25 26
M  V30 26 1 25 27
M  V30 27 1 26 28
M  V30 28 2 27 29
M  V30 29 1 28 30
M  V30 30 2 28 31
M  V30 31 1 30 32
M  V30 32 1 4 6
M  V30 33 1 8 9
M  V30 34 1 16 17
M  V30 35 1 22 23
M  V30 36 1 29 31
M  V30 37 1 3 33
M  V30 38 1 3 34
M  V30 39 1 5 35
M  V30 40 1 7 36
M  V30 41 1 9 37
M  V30 42 1 12 38
M  V30 43 1 12 39
M  V30 44 1 13 40
M  V30 45 1 13 41
M  V30 46 1 14 42
M  V30 47 1 14 43
M  V30 48 1 14 44
M  V30 49 1 15 45
M  V30 50 1 15 46
M  V30 51 1 16 47
M  V30 52 1 16 48
M  V30 53 1 17 49
M  V30 54 1 19 50
M  V30 55 1 19 51
M  V30 56 1 20 52
M  V30 57 1 20 53
M  V30 58 1 21 54
M  V30 59 1 21 55
M  V30 60 1 22 56
M  V30 61 1 22 57
M  V30 62 1 23 58
M  V30 63 1 24 59
M  V30 64 1 24 60
M  V30 65 1 26 61
M  V30 66 1 27 62
M  V30 67 1 29 63
M  V30 68 1 31 64
M  V30 69 1 32 65
M  V30 70 1 32 66
M  V30 71 1 32 67
M  V30 END BOND
M  V30 END CTAB
M  END
>  <level_0>
906

>  <index>
906

>  <NO.>
907

>  <Name>
bms-184111

>  <SMILES>
COc1cccc(CC2CCN(C3CCC(OC)(c4ccc5c(c4)OCO5)CC3)CC2)c1

>  <logBB>
0.74

>  <Class>
1

>  <MW>
437.26

>  <nHBAcc>
5

>  <nHBDon>
0

>  <SLogP>
5.16

>  <TopoPSA>
40.16

>  <MMFF94 Energy>
75.812

$$$$
CSc1ccc2c(c1)N(CCC1CCCNC1)c1ccccc1S2
Actelion Java MolfileCreator 2.0

  0  0  0  0  0  0              0 V3000
M  V30 BEGIN CTAB
M  V30 COUNTS 48 51 0 0 0
M  V30 BEGIN ATOM
M  V30 1 S -2.2055 -4.169 -0.6531 0
M  V30 2 C -0.4986 -3.7339 -0.4323 0
M  V30 3 C -3.0091 -2.585 -0.6465 0
M  V30 4 C -0.019 -2.4092 -0.4474 0
M  V30 5 C 0.3788 -4.8204 -0.252 0
M  V30 6 C -2.318 -1.3563 -0.6457 0
M  V30 7 C -4.4184 -2.6275 -0.6566 0
M  V30 8 N -0.8933 -1.2982 -0.6455 0
M  V30 9 C 1.3725 -2.2474 -0.2405 0
M  V30 10 C 1.742 -4.6204 -0.0612 0
M  V30 11 C -3.1226 -0.193 -0.6312 0
M  V30 12 C -5.1732 -1.461 -0.6528 0
M  V30 13 C -0.2667 0.0096 -0.9492 0
M  V30 14 C 2.2447 -3.3278 -0.0373 0
M  V30 15 C -4.5224 -0.2401 -0.6364 0
M  V30 16 C 0.0092 0.8091 0.3351 0
M  V30 17 S 3.9942 -3.0819 0.2141 0
M  V30 18 C 0.8765 2.0584 0.0953 0 CFG=2
M  V30 19 C 3.9525 -2.0341 1.6934 0
M  V30 20 C 1.239 2.707 1.4434 0
M  V30 21 C 0.1846 3.0841 -0.8152 0
M  V30 22 N 2.0621 3.9021 1.2611 0
M  V30 23 C 1.0107 4.3639 -0.9191 0
M  V30 24 C 1.3704 4.91 0.4588 0
M  V30 25 H -0.0017 -5.8403 -0.2577 0
M  V30 26 H -4.9374 -3.5843 -0.6653 0
M  V30 27 H 1.819 -1.2594 -0.2286 0
M  V30 28 H 2.396 -5.4778 0.0747 0
M  V30 29 H -2.6882 0.8003 -0.6021 0
M  V30 30 H -6.2583 -1.5094 -0.6583 0
M  V30 31 H -0.8867 0.5889 -1.6434 0
M  V30 32 H 0.6568 -0.1232 -1.5265 0
M  V30 33 H -5.0961 0.6832 -0.6252 0
M  V30 34 H 0.5144 0.168 1.0678 0
M  V30 35 H -0.9347 1.1027 0.8091 0
M  V30 36 H 1.8096 1.7397 -0.3903 0
M  V30 37 H 3.517 -1.0569 1.4689 0
M  V30 38 H 4.9746 -1.8802 2.0495 0
M  V30 39 H 3.3769 -2.5156 2.4888 0
M  V30 40 H 1.8037 1.9906 2.0511 0
M  V30 41 H 0.3326 2.9589 2.0087 0
M  V30 42 H -0.8094 3.3254 -0.4177 0
M  V30 43 H 0.0386 2.6753 -1.8206 0
M  V30 44 H 2.2875 4.2983 2.1737 0
M  V30 45 H 0.4513 5.1192 -1.4825 0
M  V30 46 H 1.9285 4.1588 -1.4847 0
M  V30 47 H 0.4687 5.2549 0.9795 0
M  V30 48 H 2.0251 5.7803 0.3409 0
M  V30 END ATOM
M  V30 BEGIN BOND
M  V30 1 1 1 2
M  V30 2 1 1 3
M  V30 3 2 2 4
M  V30 4 1 2 5
M  V30 5 2 3 6
M  V30 6 1 3 7
M  V30 7 1 4 8
M  V30 8 1 4 9
M  V30 9 2 5 10
M  V30 10 1 6 11
M  V30 11 2 7 12
M  V30 12 1 8 13
M  V30 13 2 9 14
M  V30 14 2 11 15
M  V30 15 1 13 16
M  V30 16 1 14 17
M  V30 17 1 16 18
M  V30 18 1 17 19
M  V30 19 1 18 20
M  V30 20 1 18 21
M  V30 21 1 20 22
M  V30 22 1 21 23
M  V30 23 1 22 24
M  V30 24 1 6 8
M  V30 25 1 10 14
M  V30 26 1 12 15
M  V30 27 1 23 24
M  V30 28 1 5 25
M  V30 29 1 7 26
M  V30 30 1 9 27
M  V30 31 1 10 28
M  V30 32 1 11 29
M  V30 33 1 12 30
M  V30 34 1 13 31
M  V30 35 1 13 32
M  V30 36 1 15 33
M  V30 37 1 16 34
M  V30 38 1 16 35
M  V30 39 1 18 36
M  V30 40 1 19 37
M  V30 41 1 19 38
M  V30 42 1 19 39
M  V30 43 1 20 40
M  V30 44 1 20 41
M  V30 45 1 21 42
M  V30 46 1 21 43
M  V30 47 1 22 44
M  V30 48 1 23 45
M  V30 49 1 23 46
M  V30 50 1 24 47
M  V30 51 1 24 48
M  V30 END BOND
M  V30 BEGIN COLLECTION
M  V30 MDLV30/STERAC1 ATOMS=(1 18)
M  V30 END COLLECTION
M  V30 END CTAB
M  END
>  <level_0>
910

>  <index>
910

>  <NO.>
911

>  <Name>
northioridazine

>  <SMILES>
CSc1ccc2c(c1)N(CCC1CCCNC1)c1ccccc1S2

>  <logBB>
0.75

>  <Class>
1

>  <MW>
356.14

>  <nHBAcc>
4

>  <nHBDon>
1

>  <SLogP>
5.4

>  <TopoPSA>
15.27

>  <MMFF94 Energy>
62.262

$$$$
CN(C)C(=O)C(CCN1CCC(O)(c2ccc(Cl)cc2)CC1)(c1ccccc1)c1ccccc1
Actelion Java MolfileCreator 2.0

  0  0  0  0  0  0              0 V3000
M  V30 BEGIN CTAB
M  V30 COUNTS 67 70 0 0 0
M  V30 BEGIN ATOM
M  V30 1 Cl -8.766 3.3708 -3.853 0
M  V30 2 C -7.3445 2.5281 -3.3765 0
M  V30 3 C -6.1249 2.833 -3.9722 0
M  V30 4 C -7.4174 1.5438 -2.3981 0
M  V30 5 C -4.9657 2.1485 -3.5879 0
M  V30 6 C -6.2591 0.862 -2.0156 0
M  V30 7 C -5.0085 1.1491 -2.6022 0
M  V30 8 C -3.7707 0.368 -2.1427 0
M  V30 9 O -4.1139 -1.0288 -2.2087 0
M  V30 10 C -3.427 0.7135 -0.6851 0
M  V30 11 C -2.5179 0.5633 -3.013 0
M  V30 12 C -2.1668 -0.0076 -0.2006 0
M  V30 13 C -1.3086 -0.1791 -2.4434 0
M  V30 14 N -1.0157 0.2716 -1.0732 0
M  V30 15 C 0.221 -0.384 -0.5868 0
M  V30 16 C 0.7817 0.2873 0.6826 0
M  V30 17 C 2.2292 -0.1355 1.1851 0
M  V30 18 C 2.2266 -1.6706 1.4865 0
M  V30 19 C 2.4945 0.8036 2.4283 0
M  V30 20 C 3.2707 0.2 0.0305 0
M  V30 21 C 2.2595 -2.5968 0.4194 0
M  V30 22 C 2.2215 -2.211 2.7851 0
M  V30 23 C 1.5897 0.8493 3.5138 0
M  V30 24 C 3.5873 1.6911 2.4873 0
M  V30 25 O 2.9464 0.9518 -0.8982 0
M  V30 26 N 4.5712 -0.3163 0.0619 0
M  V30 27 C 2.2567 -3.9777 0.6372 0
M  V30 28 C 2.2192 -3.5938 3.0051 0
M  V30 29 C 1.7905 1.694 4.6102 0
M  V30 30 C 3.7891 2.5372 3.5844 0
M  V30 31 C 5.1971 -1.0193 1.175 0
M  V30 32 C 5.429 -0.1114 -1.0957 0
M  V30 33 C 2.2314 -4.4766 1.9324 0
M  V30 34 C 2.8948 2.5348 4.6477 0
M  V30 35 H -6.0645 3.6043 -4.7357 0
M  V30 36 H -8.3663 1.3009 -1.9279 0
M  V30 37 H -4.0355 2.424 -4.0777 0
M  V30 38 H -6.3356 0.092 -1.2483 0
M  V30 39 H -4.6345 -1.1557 -3.0212 0
M  V30 40 H -3.2864 1.7979 -0.5795 0
M  V30 41 H -4.2484 0.4316 -0.0143 0
M  V30 42 H -2.7002 0.1971 -4.0313 0
M  V30 43 H -2.2574 1.627 -3.0866 0
M  V30 44 H -1.9701 0.3466 0.8166 0
M  V30 45 H -2.3555 -1.0869 -0.1332 0
M  V30 46 H -1.4725 -1.264 -2.4775 0
M  V30 47 H -0.4527 0.0368 -3.0948 0
M  V30 48 H 0.9729 -0.3353 -1.3794 0
M  V30 49 H 0.0129 -1.4437 -0.4032 0
M  V30 50 H 0.775 1.3756 0.5207 0
M  V30 51 H 0.0603 0.0926 1.4838 0
M  V30 52 H 2.3005 -2.2544 -0.6135 0
M  V30 53 H 2.245 -1.5813 3.6682 0
M  V30 54 H 0.704 0.2169 3.527 0
M  V30 55 H 4.3065 1.7693 1.6763 0
M  V30 56 H 2.2773 -4.6599 -0.2087 0
M  V30 57 H 2.2138 -3.9775 4.0226 0
M  V30 58 H 1.0763 1.6974 5.4297 0
M  V30 59 H 4.6436 3.2093 3.5966 0
M  V30 60 H 4.6479 -0.9177 2.1076 0
M  V30 61 H 5.2906 -2.0769 0.9128 0
M  V30 62 H 6.1973 -0.6039 1.335 0
M  V30 63 H 4.8845 0.2782 -1.9592 0
M  V30 64 H 5.8803 -1.0683 -1.375 0
M  V30 65 H 6.217 0.5973 -0.8241 0
M  V30 66 H 2.2291 -5.549 2.1063 0
M  V30 67 H 3.0504 3.1969 5.4949 0
M  V30 END ATOM
M  V30 BEGIN BOND
M  V30 1 1 1 2
M  V30 2 2 2 3
M  V30 3 1 2 4
M  V30 4 1 3 5
M  V30 5 2 4 6
M  V30 6 2 5 7
M  V30 7 1 7 8
M  V30 8 1 8 9
M  V30 9 1 8 10
M  V30 10 1 8 11
M  V30 11 1 10 12
M  V30 12 1 11 13
M  V30 13 1 12 14
M  V30 14 1 14 15
M  V30 15 1 15 16
M  V30 16 1 16 17
M  V30 17 1 17 18
M  V30 18 1 17 19
M  V30 19 1 17 20
M  V30 20 2 18 21
M  V30 21 1 18 22
M  V30 22 2 19 23
M  V30 23 1 19 24
M  V30 24 2 20 25
M  V30 25 1 20 26
M  V30 26 1 21 27
M  V30 27 2 22 28
M  V30 28 1 23 29
M  V30 29 2 24 30
M  V30 30 1 26 31
M  V30 31 1 26 32
M  V30 32 2 27 33
M  V30 33 2 29 34
M  V30 34 1 6 7
M  V30 35 1 13 14
M  V30 36 1 28 33
M  V30 37 1 30 34
M  V30 38 1 3 35
M  V30 39 1 4 36
M  V30 40 1 5 37
M  V30 41 1 6 38
M  V30 42 1 9 39
M  V30 43 1 10 40
M  V30 44 1 10 41
M  V30 45 1 11 42
M  V30 46 1 11 43
M  V30 47 1 12 44
M  V30 48 1 12 45
M  V30 49 1 13 46
M  V30 50 1 13 47
M  V30 51 1 15 48
M  V30 52 1 15 49
M  V30 53 1 16 50
M  V30 54 1 16 51
M  V30 55 1 21 52
M  V30 56 1 22 53
M  V30 57 1 23 54
M  V30 58 1 24 55
M  V30 59 1 27 56
M  V30 60 1 28 57
M  V30 61 1 29 58
M  V30 62 1 30 59
M  V30 63 1 31 60
M  V30 64 1 31 61
M  V30 65 1 31 62
M  V30 66 1 32 63
M  V30 67 1 32 64
M  V30 68 1 32 65
M  V30 69 1 33 66
M  V30 70 1 34 67
M  V30 END BOND
M  V30 END CTAB
M  END
>  <level_0>
911

>  <index>
911

>  <NO.>
912

>  <Name>
loperamide(1+)

>  <SMILES>
CN(C)C(=O)C(CCN1CCC(O)(c2ccc(Cl)cc2)CC1)(c1ccccc1)c1ccccc1

>  <logBB>
0.77

>  <Class>
1

>  <MW>
476.22

>  <nHBAcc>
3

>  <nHBDon>
1

>  <SLogP>
5.09

>  <TopoPSA>
43.78

>  <MMFF94 Energy>
121.71

$$$$
COc1cc(-n2cnc3cc(-c4ccc(Cl)cc4)sc3c2=O)ccc1OCCN1CCCC1
Actelion Java MolfileCreator 2.0

  0  0  0  0  0  0              0 V3000
M  V30 BEGIN CTAB
M  V30 COUNTS 57 61 0 0 0
M  V30 BEGIN ATOM
M  V30 1 Cl -8.8285 -8.5825 0.978 0
M  V30 2 C -7.6064 -7.3731 1.0024 0
M  V30 3 C -7.1 -6.8738 -0.1926 0
M  V30 4 C -7.122 -6.9008 2.2175 0
M  V30 5 C -6.1041 -5.8898 -0.1715 0
M  V30 6 C -6.1259 -5.9175 2.2349 0
M  V30 7 C -5.6104 -5.3803 1.0421 0
M  V30 8 C -4.5254 -4.3786 1.0925 0
M  V30 9 S -4.2894 -3.2546 -0.2042 0
M  V30 10 C -3.584 -4.165 2.0925 0
M  V30 11 C -2.9774 -2.5233 0.5735 0
M  V30 12 C -2.7108 -3.101 1.7787 0
M  V30 13 C -2.219 -1.4222 0.0455 0
M  V30 14 N -1.6698 -2.6804 2.6112 0
M  V30 15 O -2.4443 -0.8919 -1.0409 0
M  V30 16 N -1.1953 -1.0265 0.9207 0
M  V30 17 C -0.9893 -1.6847 2.1285 0
M  V30 18 C -0.347 0.061 0.5747 0
M  V30 19 C 0.3599 0.0528 -0.634 0
M  V30 20 C -0.1997 1.1408 1.4516 0
M  V30 21 C 1.2068 1.1164 -0.9674 0
M  V30 22 C 0.6557 2.1984 1.1315 0
M  V30 23 O 1.9415 1.1762 -2.1269 0
M  V30 24 C 1.3702 2.1896 -0.0696 0
M  V30 25 C 1.5036 0.3604 -3.2061 0
M  V30 26 O 2.2256 3.1832 -0.4699 0
M  V30 27 C 2.5752 4.1903 0.4806 0
M  V30 28 C 3.6636 5.0996 -0.1214 0
M  V30 29 N 5.049 4.6552 0.1569 0
M  V30 30 C 6.0224 5.6085 -0.4035 0
M  V30 31 C 5.3943 3.3876 -0.5078 0
M  V30 32 C 6.2297 5.2013 -1.8568 0
M  V30 33 C 5.7603 3.755 -1.9367 0
M  V30 34 H -7.4674 -7.2461 -1.1453 0
M  V30 35 H -7.511 -7.2899 3.1547 0
M  V30 36 H -5.7172 -5.539 -1.1256 0
M  V30 37 H -5.7723 -5.5638 3.2011 0
M  V30 38 H -3.519 -4.7503 3.0006 0
M  V30 39 H -0.1393 -1.2979 2.7156 0
M  V30 40 H 0.2466 -0.7947 -1.302 0
M  V30 41 H -0.7553 1.1813 2.386 0
M  V30 42 H 0.7354 3.0202 1.8357 0
M  V30 43 H 1.7404 -0.6915 -3.0185 0
M  V30 44 H 2.0519 0.6691 -4.1014 0
M  V30 45 H 0.4352 0.4959 -3.4065 0
M  V30 46 H 2.9292 3.7471 1.4197 0
M  V30 47 H 1.689 4.8047 0.6817 0
M  V30 48 H 3.4868 5.2308 -1.1959 0
M  V30 49 H 3.5453 6.0823 0.3529 0
M  V30 50 H 5.7198 6.6565 -0.3011 0
M  V30 51 H 6.9674 5.5007 0.1437 0
M  V30 52 H 6.2765 2.9695 -0.0056 0
M  V30 53 H 4.6249 2.6143 -0.4533 0
M  V30 54 H 7.2796 5.3005 -2.1505 0
M  V30 55 H 5.6314 5.8263 -2.5294 0
M  V30 56 H 6.5375 3.0969 -2.3376 0
M  V30 57 H 4.8855 3.6819 -2.5931 0
M  V30 END ATOM
M  V30 BEGIN BOND
M  V30 1 1 1 2
M  V30 2 2 2 3
M  V30 3 1 2 4
M  V30 4 1 3 5
M  V30 5 2 4 6
M  V30 6 2 5 7
M  V30 7 1 7 8
M  V30 8 1 8 9
M  V30 9 2 8 10
M  V30 10 1 9 11
M  V30 11 1 10 12
M  V30 12 1 11 13
M  V30 13 1 12 14
M  V30 14 2 13 15
M  V30 15 1 13 16
M  V30 16 2 14 17
M  V30 17 1 16 18
M  V30 18 2 18 19
M  V30 19 1 18 20
M  V30 20 1 19 21
M  V30 21 2 20 22
M  V30 22 1 21 23
M  V30 23 2 21 24
M  V30 24 1 23 25
M  V30 25 1 24 26
M  V30 26 1 26 27
M  V30 27 1 27 28
M  V30 28 1 28 29
M  V30 29 1 29 30
M  V30 30 1 29 31
M  V30 31 1 30 32
M  V30 32 1 31 33
M  V30 33 1 6 7
M  V30 34 2 11 12
M  V30 35 1 16 17
M  V30 36 1 22 24
M  V30 37 1 32 33
M  V30 38 1 3 34
M  V30 39 1 4 35
M  V30 40 1 5 36
M  V30 41 1 6 37
M  V30 42 1 10 38
M  V30 43 1 17 39
M  V30 44 1 19 40
M  V30 45 1 20 41
M  V30 46 1 22 42
M  V30 47 1 25 43
M  V30 48 1 25 44
M  V30 49 1 25 45
M  V30 50 1 27 46
M  V30 51 1 27 47
M  V30 52 1 28 48
M  V30 53 1 28 49
M  V30 54 1 30 50
M  V30 55 1 30 51
M  V30 56 1 31 52
M  V30 57 1 31 53
M  V30 58 1 32 54
M  V30 59 1 32 55
M  V30 60 1 33 56
M  V30 61 1 33 57
M  V30 END BOND
M  V30 END CTAB
M  END
>  <level_0>
917

>  <index>
917

>  <NO.>
918

>  <Name>
515141-51-2

>  <SMILES>
COc1cc(-n2cnc3cc(-c4ccc(Cl)cc4)sc3c2=O)ccc1OCCN1CCCC1

>  <logBB>
0.78

>  <Class>
1

>  <MW>
481.12

>  <nHBAcc>
6

>  <nHBDon>
0

>  <SLogP>
5.25

>  <TopoPSA>
56.59

>  <MMFF94 Energy>
74.989

$$$$
CSc1ccc2c(c1)N(CCC1CCCCN1)c1ccccc1S2
Actelion Java MolfileCreator 2.0

  0  0  0  0  0  0              0 V3000
M  V30 BEGIN CTAB
M  V30 COUNTS 48 51 0 0 0
M  V30 BEGIN ATOM
M  V30 1 S -1.3879 2.859 0.8978 0
M  V30 2 C 0.0629 2.6964 -0.1228 0
M  V30 3 C -1.0727 1.6563 2.1741 0
M  V30 4 C 0.9476 1.6045 -0.0293 0
M  V30 5 C 0.2769 3.7087 -1.0729 0
M  V30 6 C -0.0734 0.6694 2.0645 0
M  V30 7 C -1.8846 1.729 3.3199 0
M  V30 8 N 0.7297 0.5536 0.9008 0
M  V30 9 C 2.0716 1.6083 -0.8828 0
M  V30 10 C 1.3836 3.6729 -1.9187 0
M  V30 11 C 0.1256 -0.1692 3.1807 0
M  V30 12 C -1.6929 0.8563 4.3871 0
M  V30 13 C 1.0976 -0.8167 0.4708 0
M  V30 14 C 2.2985 2.6304 -1.8145 0
M  V30 15 C -0.6769 -0.0856 4.3229 0
M  V30 16 C 0.3171 -1.3 -0.7639 0
M  V30 17 S 3.7354 2.5396 -2.8686 0
M  V30 18 C -1.2169 -1.3838 -0.5938 0 CFG=2
M  V30 19 C 4.5214 4.122 -2.4614 0
M  V30 20 N -1.671 -2.2667 0.4886 0
M  V30 21 C -1.9008 -1.7979 -1.9115 0
M  V30 22 C -1.4288 -3.6828 0.2411 0
M  V30 23 C -1.7058 -3.2777 -2.236 0
M  V30 24 C -2.106 -4.1445 -1.0469 0
M  V30 25 H -0.4241 4.5366 -1.1597 0
M  V30 26 H -2.6695 2.4794 3.3892 0
M  V30 27 H 2.8096 0.8146 -0.8156 0
M  V30 28 H 1.5142 4.4623 -2.6536 0
M  V30 29 H 0.941 -0.8867 3.1994 0
M  V30 30 H -2.3227 0.9268 5.2699 0
M  V30 31 H 0.959 -1.5646 1.257 0
M  V30 32 H 2.1725 -0.8653 0.2608 0
M  V30 33 H -0.4972 -0.7512 5.1634 0
M  V30 34 H 0.7207 -2.2808 -1.0427 0
M  V30 35 H 0.5353 -0.6468 -1.6173 0
M  V30 36 H -1.5826 -0.3771 -0.3612 0
M  V30 37 H 3.9138 4.9612 -2.8102 0
M  V30 38 H 5.4947 4.1739 -2.9568 0
M  V30 39 H 4.6765 4.2073 -1.3822 0
M  V30 40 H -1.2759 -1.9751 1.3808 0
M  V30 41 H -1.5319 -1.1856 -2.7429 0
M  V30 42 H -2.9775 -1.5953 -1.832 0
M  V30 43 H -1.8338 -4.2607 1.0794 0
M  V30 44 H -0.3543 -3.8944 0.2072 0
M  V30 45 H -0.6592 -3.4702 -2.4981 0
M  V30 46 H -2.3057 -3.5484 -3.1122 0
M  V30 47 H -3.1957 -4.103 -0.9207 0
M  V30 48 H -1.8494 -5.1907 -1.2475 0
M  V30 END ATOM
M  V30 BEGIN BOND
M  V30 1 1 1 2
M  V30 2 1 1 3
M  V30 3 2 2 4
M  V30 4 1 2 5
M  V30 5 2 3 6
M  V30 6 1 3 7
M  V30 7 1 4 8
M  V30 8 1 4 9
M  V30 9 2 5 10
M  V30 10 1 6 11
M  V30 11 2 7 12
M  V30 12 1 8 13
M  V30 13 2 9 14
M  V30 14 2 11 15
M  V30 15 1 13 16
M  V30 16 1 14 17
M  V30 17 1 16 18
M  V30 18 1 17 19
M  V30 19 1 18 20
M  V30 20 1 18 21
M  V30 21 1 20 22
M  V30 22 1 21 23
M  V30 23 1 22 24
M  V30 24 1 6 8
M  V30 25 1 10 14
M  V30 26 1 12 15
M  V30 27 1 23 24
M  V30 28 1 5 25
M  V30 29 1 7 26
M  V30 30 1 9 27
M  V30 31 1 10 28
M  V30 32 1 11 29
M  V30 33 1 12 30
M  V30 34 1 13 31
M  V30 35 1 13 32
M  V30 36 1 15 33
M  V30 37 1 16 34
M  V30 38 1 16 35
M  V30 39 1 18 36
M  V30 40 1 19 37
M  V30 41 1 19 38
M  V30 42 1 19 39
M  V30 43 1 20 40
M  V30 44 1 21 41
M  V30 45 1 21 42
M  V30 46 1 22 43
M  V30 47 1 22 44
M  V30 48 1 23 45
M  V30 49 1 23 46
M  V30 50 1 24 47
M  V30 51 1 24 48
M  V30 END BOND
M  V30 BEGIN COLLECTION
M  V30 MDLV30/STERAC1 ATOMS=(1 18)
M  V30 END COLLECTION
M  V30 END CTAB
M  END
>  <level_0>
926

>  <index>
926

>  <NO.>
927

>  <Name>
northioridazine

>  <SMILES>
CSc1ccc2c(c1)N(CCC1CCCCN1)c1ccccc1S2

>  <logBB>
0.8

>  <Class>
1

>  <MW>
356.14

>  <nHBAcc>
4

>  <nHBDon>
1

>  <SLogP>
5.54

>  <TopoPSA>
15.27

>  <MMFF94 Energy>
63.468

$$$$
COc1cc2sc(C(C)(C)C)nc2cc1CNC1CCCNC1c1ccccc1
Actelion Java MolfileCreator 2.0

  0  0  0  0  0  0              0 V3000
M  V30 BEGIN CTAB
M  V30 COUNTS 60 63 0 0 0
M  V30 BEGIN ATOM
M  V30 1 S -0.8814 4.0115 -2.6462 0
M  V30 2 C -1.2465 2.7733 -1.5091 0
M  V30 3 C -0.0168 2.8799 -3.621 0
M  V30 4 C -0.6865 1.5784 -1.9487 0
M  V30 5 C -1.9762 2.8621 -0.309 0
M  V30 6 N 0.0031 1.6514 -3.146 0
M  V30 7 C 0.6585 3.3008 -4.9246 0
M  V30 8 C -0.8622 0.4247 -1.164 0
M  V30 9 C -2.1445 1.7037 0.4637 0
M  V30 10 C -0.3794 3.8427 -5.9245 0
M  V30 11 C 1.734 4.3703 -4.6592 0
M  V30 12 C 1.3509 2.0817 -5.5725 0
M  V30 13 C -1.6028 0.4802 0.0347 0
M  V30 14 O -2.8218 1.6689 1.6576 0
M  V30 15 C -1.75 -0.7887 0.8474 0
M  V30 16 C -3.3581 2.8919 2.147 0
M  V30 17 N -0.5802 -0.9828 1.6979 0
M  V30 18 C -0.5834 -2.2573 2.4363 0
M  V30 19 C 0.8434 -2.5844 3.0273 0
M  V30 20 C -1.619 -2.2231 3.5782 0
M  V30 21 N 0.8255 -3.8176 3.8445 0
M  V30 22 C 1.9849 -2.7069 2.0164 0
M  V30 23 C -1.5555 -3.4971 4.4141 0
M  V30 24 C -0.1445 -3.7442 4.9298 0
M  V30 25 C 3.3089 -2.5942 2.4825 0
M  V30 26 C 1.7894 -2.9598 0.6506 0
M  V30 27 C 4.3949 -2.7114 1.6128 0
M  V30 28 C 2.8767 -3.0736 -0.221 0
M  V30 29 C 4.1777 -2.9486 0.2591 0
M  V30 30 H -2.3834 3.8216 -0.0144 0
M  V30 31 H -0.4101 -0.5068 -1.4921 0
M  V30 32 H 0.0866 4.0782 -6.8882 0
M  V30 33 H -0.8554 4.7613 -5.5634 0
M  V30 34 H -1.1742 3.1101 -6.1078 0
M  V30 35 H 2.4699 4.0199 -3.9258 0
M  V30 36 H 2.2737 4.6239 -5.5789 0
M  V30 37 H 1.301 5.2996 -4.2726 0
M  V30 38 H 1.8444 2.3578 -6.5115 0
M  V30 39 H 0.6307 1.2865 -5.7993 0
M  V30 40 H 2.1148 1.6569 -4.9103 0
M  V30 41 H -1.8592 -1.6322 0.1535 0
M  V30 42 H -2.6765 -0.7548 1.4298 0
M  V30 43 H -2.5662 3.6256 2.33 0
M  V30 44 H -3.8448 2.683 3.1045 0
M  V30 45 H -4.1191 3.2887 1.4672 0
M  V30 46 H -0.5019 -0.1958 2.3414 0
M  V30 47 H -0.8604 -3.0703 1.7514 0
M  V30 48 H 1.1134 -1.7461 3.6878 0
M  V30 49 H -2.6355 -2.1175 3.1836 0
M  V30 50 H -1.4358 -1.3568 4.2276 0
M  V30 51 H 0.6094 -4.6021 3.2304 0
M  V30 52 H -1.8864 -4.3507 3.8092 0
M  V30 53 H -2.2485 -3.4171 5.2593 0
M  V30 54 H -0.1216 -4.6863 5.4885 0
M  V30 55 H 0.1464 -2.9572 5.636 0
M  V30 56 H 3.4942 -2.4216 3.5411 0
M  V30 57 H 0.7909 -3.0587 0.236 0
M  V30 58 H 5.4075 -2.6195 1.9952 0
M  V30 59 H 2.7039 -3.2566 -1.2782 0
M  V30 60 H 5.02 -3.0369 -0.4208 0
M  V30 END ATOM
M  V30 BEGIN BOND
M  V30 1 1 1 2
M  V30 2 1 1 3
M  V30 3 2 2 4
M  V30 4 1 2 5
M  V30 5 2 3 6
M  V30 6 1 3 7
M  V30 7 1 4 8
M  V30 8 2 5 9
M  V30 9 1 7 10
M  V30 10 1 7 11
M  V30 11 1 7 12
M  V30 12 2 8 13
M  V30 13 1 9 14
M  V30 14 1 13 15
M  V30 15 1 14 16
M  V30 16 1 15 17
M  V30 17 1 17 18
M  V30 18 1 18 19
M  V30 19 1 18 20
M  V30 20 1 19 21
M  V30 21 1 19 22
M  V30 22 1 20 23
M  V30 23 1 21 24
M  V30 24 2 22 25
M  V30 25 1 22 26
M  V30 26 1 25 27
M  V30 27 2 26 28
M  V30 28 2 27 29
M  V30 29 1 4 6
M  V30 30 1 9 13
M  V30 31 1 23 24
M  V30 32 1 28 29
M  V30 33 1 5 30
M  V30 34 1 8 31
M  V30 35 1 10 32
M  V30 36 1 10 33
M  V30 37 1 10 34
M  V30 38 1 11 35
M  V30 39 1 11 36
M  V30 40 1 11 37
M  V30 41 1 12 38
M  V30 42 1 12 39
M  V30 43 1 12 40
M  V30 44 1 15 41
M  V30 45 1 15 42
M  V30 46 1 16 43
M  V30 47 1 16 44
M  V30 48 1 16 45
M  V30 49 1 17 46
M  V30 50 1 18 47
M  V30 51 1 19 48
M  V30 52 1 20 49
M  V30 53 1 20 50
M  V30 54 1 21 51
M  V30 55 1 23 52
M  V30 56 1 23 53
M  V30 57 1 24 54
M  V30 58 1 24 55
M  V30 59 1 25 56
M  V30 60 1 26 57
M  V30 61 1 27 58
M  V30 62 1 28 59
M  V30 63 1 29 60
M  V30 END BOND
M  V30 END CTAB
M  END
>  <level_0>
943

>  <index>
943

>  <NO.>
944

>  <Name>
pfizer compound 21

>  <SMILES>
COc1cc2sc(C(C)(C)C)nc2cc1CNC1CCCNC1c1ccccc1

>  <logBB>
0.85

>  <Class>
1

>  <MW>
409.22

>  <nHBAcc>
5

>  <nHBDon>
2

>  <SLogP>
5.19

>  <TopoPSA>
46.18

>  <MMFF94 Energy>
83.355

$$$$
CN(Cc1cc(C(F)(F)F)cc(C(F)(F)F)c1)C(=O)c1cnccc1-c1ccccc1Cl
Actelion Java MolfileCreator 2.0

  0  0  0  0  0  0              0 V3000
M  V30 BEGIN CTAB
M  V30 COUNTS 47 49 0 0 0
M  V30 BEGIN ATOM
M  V30 1 Cl 1.643 -2.2185 -2.8766 0
M  V30 2 C 1.4098 -0.6228 -2.2512 0
M  V30 3 C 0.149 0.0034 -2.2694 0
M  V30 4 C 2.5321 0.042 -1.7461 0
M  V30 5 C -1.0564 -0.6502 -2.8033 0
M  V30 6 C 0.059 1.3188 -1.7768 0
M  V30 7 C 2.4164 1.3404 -1.2525 0
M  V30 8 C -1.8463 -1.5314 -2.0498 0
M  V30 9 C -1.4477 -0.4083 -4.1281 0
M  V30 10 C 1.1802 1.979 -1.2677 0
M  V30 11 C -1.5543 -1.8665 -0.6504 0
M  V30 12 C -2.9423 -2.1422 -2.6429 0
M  V30 13 C -2.5743 -1.0456 -4.6298 0
M  V30 14 O -0.9325 -2.9033 -0.4369 0
M  V30 15 N -2.0071 -1.0123 0.352 0
M  V30 16 N -3.3351 -1.902 -3.9155 0
M  V30 17 C -1.6003 -1.2959 1.7248 0
M  V30 18 C -2.8155 0.181 0.1348 0
M  V30 19 C -0.3614 -0.5209 2.1173 0
M  V30 20 C -0.4652 0.7012 2.7966 0
M  V30 21 C 0.9113 -1.0049 1.7779 0
M  V30 22 C 0.679 1.4389 3.1379 0
M  V30 23 C 2.071 -0.2936 2.1181 0
M  V30 24 C 1.9421 0.9243 2.806 0
M  V30 25 C 0.5508 2.7478 3.8797 0
M  V30 26 C 3.4414 -0.8288 1.7773 0
M  V30 27 F -0.5858 3.4283 3.5607 0
M  V30 28 F 0.5215 2.5789 5.2291 0
M  V30 29 F 1.5781 3.606 3.6285 0
M  V30 30 F 4.0809 -1.3363 2.8669 0
M  V30 31 F 3.4335 -1.8222 0.848 0
M  V30 32 F 4.2672 0.1362 1.2801 0
M  V30 33 H 3.5017 -0.4508 -1.7353 0
M  V30 34 H -0.895 1.8422 -1.7885 0
M  V30 35 H 3.2921 1.8514 -0.8592 0
M  V30 36 H -0.8757 0.2562 -4.769 0
M  V30 37 H 1.0881 2.9935 -0.8872 0
M  V30 38 H -3.5551 -2.8539 -2.0964 0
M  V30 39 H -2.8985 -0.8822 -5.6542 0
M  V30 40 H -2.434 -1.0596 2.3972 0
M  V30 41 H -1.4054 -2.3675 1.853 0
M  V30 42 H -3.6864 0.1406 0.796 0
M  V30 43 H -2.22 1.0652 0.3761 0
M  V30 44 H -3.1715 0.2669 -0.8925 0
M  V30 45 H -1.4494 1.0887 3.0602 0
M  V30 46 H 0.9962 -1.9494 1.2362 0
M  V30 47 H 2.8399 1.481 3.0801 0
M  V30 END ATOM
M  V30 BEGIN BOND
M  V30 1 1 1 2
M  V30 2 2 2 3
M  V30 3 1 2 4
M  V30 4 1 3 5
M  V30 5 1 3 6
M  V30 6 2 4 7
M  V30 7 2 5 8
M  V30 8 1 5 9
M  V30 9 2 6 10
M  V30 10 1 8 11
M  V30 11 1 8 12
M  V30 12 2 9 13
M  V30 13 2 11 14
M  V30 14 1 11 15
M  V30 15 2 12 16
M  V30 16 1 15 17
M  V30 17 1 15 18
M  V30 18 1 17 19
M  V30 19 2 19 20
M  V30 20 1 19 21
M  V30 21 1 20 22
M  V30 22 2 21 23
M  V30 23 2 22 24
M  V30 24 1 22 25
M  V30 25 1 23 26
M  V30 26 1 25 27
M  V30 27 1 25 28
M  V30 28 1 25 29
M  V30 29 1 26 30
M  V30 30 1 26 31
M  V30 31 1 26 32
M  V30 32 1 7 10
M  V30 33 1 13 16
M  V30 34 1 23 24
M  V30 35 1 4 33
M  V30 36 1 6 34
M  V30 37 1 7 35
M  V30 38 1 9 36
M  V30 39 1 10 37
M  V30 40 1 12 38
M  V30 41 1 13 39
M  V30 42 1 17 40
M  V30 43 1 17 41
M  V30 44 1 18 42
M  V30 45 1 18 43
M  V30 46 1 18 44
M  V30 47 1 20 45
M  V30 48 1 21 46
M  V30 49 1 24 47
M  V30 END BOND
M  V30 END CTAB
M  END
>  <level_0>
954

>  <index>
954

>  <NO.>
955

>  <Name>
schembl5966350

>  <SMILES>
CN(Cc1cc(C(F)(F)F)cc(C(F)(F)F)c1)C(=O)c1cnccc1-c1ccccc1Cl

>  <logBB>
0.89

>  <Class>
1

>  <MW>
472.08

>  <nHBAcc>
2

>  <nHBDon>
0

>  <SLogP>
6.71

>  <TopoPSA>
33.2

>  <MMFF94 Energy>
112.59

$$$$
CC(C)(C)c1cc(CN2CCN(CC(O)c3ccc(Cl)cc3)CC2)cc(C(C)(C)C)c1O
Actelion Java MolfileCreator 2.0

  0  0  0  0  0  0              0 V3000
M  V30 BEGIN CTAB
M  V30 COUNTS 71 73 0 0 0
M  V30 BEGIN ATOM
M  V30 1 Cl 1.192 7.3284 1.2715 0
M  V30 2 C 1.5401 5.9719 2.2707 0
M  V30 3 C 0.5549 5.455 3.1058 0
M  V30 4 C 2.8092 5.4009 2.2455 0
M  V30 5 C 0.8402 4.353 3.9171 0
M  V30 6 C 3.0929 4.2989 3.0579 0
M  V30 7 C 2.1078 3.7463 3.8952 0
M  V30 8 C 2.4378 2.5564 4.7813 0 CFG=1
M  V30 9 O 1.2983 2.145 5.5513 0
M  V30 10 C 3.0173 1.3064 4.054 0
M  V30 11 N 1.9784 0.3546 3.5779 0
M  V30 12 C 1.3022 0.8565 2.3578 0
M  V30 13 C 2.6078 -0.9477 3.2568 0
M  V30 14 C 0.3033 -0.1655 1.7637 0
M  V30 15 C 1.5995 -1.9672 2.6833 0
M  V30 16 N 0.9389 -1.4647 1.4648 0
M  V30 17 C -0.0397 -2.4473 0.9722 0
M  V30 18 C -0.5914 -2.1069 -0.3985 0
M  V30 19 C 0.2692 -1.9935 -1.4966 0
M  V30 20 C -1.9641 -1.9001 -0.5836 0
M  V30 21 C -0.2031 -1.6969 -2.7856 0
M  V30 22 C -2.5135 -1.575 -1.8391 0
M  V30 23 C -1.6039 -1.5228 -2.9263 0
M  V30 24 C 0.7778 -1.5805 -3.9784 0
M  V30 25 C -4.0335 -1.2924 -1.9603 0
M  V30 26 O -2.0685 -1.3137 -4.1963 0
M  V30 27 C 2.2677 -1.7513 -3.5782 0
M  V30 28 C 0.4875 -2.6789 -5.0253 0
M  V30 29 C 0.6748 -0.1846 -4.6345 0
M  V30 30 C -4.6996 -0.9478 -0.5983 0
M  V30 31 C -4.3435 -0.0816 -2.8738 0
M  V30 32 C -4.7462 -2.5502 -2.4979 0
M  V30 33 H -0.4343 5.9033 3.137 0
M  V30 34 H 3.5832 5.8103 1.6018 0
M  V30 35 H 0.0595 3.969 4.5719 0
M  V30 36 H 4.0973 3.8818 3.0339 0
M  V30 37 H 3.1811 2.9074 5.5082 0
M  V30 38 H 1.0436 1.2817 5.1634 0
M  V30 39 H 3.5995 0.7756 4.8204 0
M  V30 40 H 3.7239 1.5719 3.2593 0
M  V30 41 H 0.731 1.7587 2.5931 0
M  V30 42 H 2.041 1.1213 1.5895 0
M  V30 43 H 3.4289 -0.8117 2.5396 0
M  V30 44 H 3.0386 -1.3769 4.1697 0
M  V30 45 H -0.5297 -0.298 2.4678 0
M  V30 46 H -0.1097 0.2738 0.8483 0
M  V30 47 H 0.8567 -2.2124 3.4548 0
M  V30 48 H 2.1454 -2.8895 2.4501 0
M  V30 49 H 0.4395 -3.4312 0.8769 0
M  V30 50 H -0.8574 -2.5762 1.6941 0
M  V30 51 H 1.3284 -2.1429 -1.3038 0
M  V30 52 H -2.5978 -1.9905 0.2938 0
M  V30 53 H -2.8383 -1.8888 -4.3195 0
M  V30 54 H 2.4621 -2.7427 -3.1524 0
M  V30 55 H 2.9262 -1.6465 -4.4491 0
M  V30 56 H 2.5796 -0.9942 -2.8489 0
M  V30 57 H -0.4917 -2.5691 -5.4994 0
M  V30 58 H 1.2284 -2.6583 -5.8335 0
M  V30 59 H 0.5212 -3.6753 -4.5688 0
M  V30 60 H 0.8328 0.6093 -3.8948 0
M  V30 61 H -0.2941 -0.0038 -5.1078 0
M  V30 62 H 1.4298 -0.0616 -5.4202 0
M  V30 63 H -4.1947 -0.1074 -0.1074 0
M  V30 64 H -5.752 -0.6666 -0.7298 0
M  V30 65 H -4.7 -1.8009 0.0894 0
M  V30 66 H -4.1811 -0.2887 -3.9343 0
M  V30 67 H -5.3964 0.2161 -2.7944 0
M  V30 68 H -3.7333 0.7866 -2.599 0
M  V30 69 H -4.5752 -3.4117 -1.8411 0
M  V30 70 H -4.404 -2.8347 -3.4967 0
M  V30 71 H -5.8293 -2.392 -2.5616 0
M  V30 END ATOM
M  V30 BEGIN BOND
M  V30 1 1 1 2
M  V30 2 2 2 3
M  V30 3 1 2 4
M  V30 4 1 3 5
M  V30 5 2 4 6
M  V30 6 2 5 7
M  V30 7 1 7 8
M  V30 8 1 8 9
M  V30 9 1 8 10
M  V30 10 1 10 11
M  V30 11 1 11 12
M  V30 12 1 11 13
M  V30 13 1 12 14
M  V30 14 1 13 15
M  V30 15 1 14 16
M  V30 16 1 16 17
M  V30 17 1 17 18
M  V30 18 2 18 19
M  V30 19 1 18 20
M  V30 20 1 19 21
M  V30 21 2 20 22
M  V30 22 2 21 23
M  V30 23 1 21 24
M  V30 24 1 22 25
M  V30 25 1 23 26
M  V30 26 1 24 27
M  V30 27 1 24 28
M  V30 28 1 24 29
M  V30 29 1 25 30
M  V30 30 1 25 31
M  V30 31 1 25 32
M  V30 32 1 6 7
M  V30 33 1 15 16
M  V30 34 1 22 23
M  V30 35 1 3 33
M  V30 36 1 4 34
M  V30 37 1 5 35
M  V30 38 1 6 36
M  V30 39 1 8 37
M  V30 40 1 9 38
M  V30 41 1 10 39
M  V30 42 1 10 40
M  V30 43 1 12 41
M  V30 44 1 12 42
M  V30 45 1 13 43
M  V30 46 1 13 44
M  V30 47 1 14 45
M  V30 48 1 14 46
M  V30 49 1 15 47
M  V30 50 1 15 48
M  V30 51 1 17 49
M  V30 52 1 17 50
M  V30 53 1 19 51
M  V30 54 1 20 52
M  V30 55 1 26 53
M  V30 56 1 27 54
M  V30 57 1 27 55
M  V30 58 1 27 56
M  V30 59 1 28 57
M  V30 60 1 28 58
M  V30 61 1 28 59
M  V30 62 1 29 60
M  V30 63 1 29 61
M  V30 64 1 29 62
M  V30 65 1 30 63
M  V30 66 1 30 64
M  V30 67 1 30 65
M  V30 68 1 31 66
M  V30 69 1 31 67
M  V30 70 1 31 68
M  V30 71 1 32 69
M  V30 72 1 32 70
M  V30 73 1 32 71
M  V30 END BOND
M  V30 BEGIN COLLECTION
M  V30 MDLV30/STERAC1 ATOMS=(1 8)
M  V30 END COLLECTION
M  V30 END CTAB
M  END
>  <level_0>
968

>  <index>
968

>  <NO.>
969

>  <Name>
am-36

>  <SMILES>
CC(C)(C)c1cc(CN2CCN(CC(O)c3ccc(Cl)cc3)CC2)cc(C(C)(C)C)c1O

>  <logBB>
0.91

>  <Class>
1

>  <MW>
458.27

>  <nHBAcc>
4

>  <nHBDon>
2

>  <SLogP>
5.49

>  <TopoPSA>
46.94

>  <MMFF94 Energy>
173.96

$$$$
CC/C(=C(\c1ccccc1)c1ccc(OCCN(C)C)cc1)c1ccccc1
Actelion Java MolfileCreator 2.0

  0  0  0  0  0  0              0 V3000
M  V30 BEGIN CTAB
M  V30 COUNTS 57 59 0 0 0
M  V30 BEGIN ATOM
M  V30 1 O 2.6832 -2.0513 0.8674 0
M  V30 2 C 1.8024 -1.187 0.2792 0
M  V30 3 C 2.5051 -3.4433 0.6023 0
M  V30 4 C 0.8191 -1.5219 -0.6511 0
M  V30 5 C 1.9465 0.1459 0.6697 0
M  V30 6 C 3.543 -4.2594 1.3989 0
M  V30 7 C -0.0181 -0.5307 -1.177 0
M  V30 8 C 1.1104 1.1369 0.1486 0
M  V30 9 N 3.4349 -4.1744 2.8711 0
M  V30 10 C 0.1114 0.804 -0.7722 0
M  V30 11 C 4.5674 -4.8575 3.499 0
M  V30 12 C 2.1762 -4.7246 3.3711 0
M  V30 13 C -0.7706 1.8658 -1.3315 0
M  V30 14 C -0.1908 2.8897 -2.2383 0
M  V30 15 C -2.0989 1.9147 -1.0299 0
M  V30 16 C 0.1006 2.5604 -3.568 0
M  V30 17 C 0.0906 4.1817 -1.7741 0
M  V30 18 C -2.733 0.938 -0.1062 0
M  V30 19 C -3.0905 2.9154 -1.6123 0
M  V30 20 C 0.6536 3.5142 -4.4245 0
M  V30 21 C 0.6429 5.134 -2.6323 0
M  V30 22 C -3.6227 -0.0279 -0.5952 0
M  V30 23 C -2.4555 0.9733 1.267 0
M  V30 24 C -3.5051 3.9847 -0.6077 0
M  V30 25 C 0.9227 4.8001 -3.9568 0
M  V30 26 C -4.2204 -0.944 0.2729 0
M  V30 27 C -3.052 0.0556 2.1337 0
M  V30 28 C -3.9344 -0.9018 1.6365 0
M  V30 29 H 2.6804 -3.6309 -0.4643 0
M  V30 30 H 1.488 -3.763 0.8546 0
M  V30 31 H 0.6751 -2.5408 -0.9917 0
M  V30 32 H 2.7154 0.4139 1.3901 0
M  V30 33 H 3.4867 -5.3076 1.0781 0
M  V30 34 H 4.5326 -3.8818 1.1098 0
M  V30 35 H -0.779 -0.8086 -1.9019 0
M  V30 36 H 1.2427 2.1661 0.4711 0
M  V30 37 H 5.5149 -4.4108 3.1777 0
M  V30 38 H 4.5896 -5.9265 3.2582 0
M  V30 39 H 4.5273 -4.7498 4.5888 0
M  V30 40 H 2.0306 -5.7665 3.0647 0
M  V30 41 H 1.3208 -4.1355 3.0264 0
M  V30 42 H 2.1453 -4.6833 4.4662 0
M  V30 43 H -0.1014 1.5594 -3.9407 0
M  V30 44 H -0.118 4.4495 -0.7414 0
M  V30 45 H -3.9875 2.3948 -1.9701 0
M  V30 46 H -2.6887 3.4122 -2.5016 0
M  V30 47 H 0.8771 3.2523 -5.4552 0
M  V30 48 H 0.8576 6.1345 -2.2665 0
M  V30 49 H -3.8481 -0.078 -1.6574 0
M  V30 50 H -1.7681 1.7143 1.6678 0
M  V30 51 H -4.174 4.7079 -1.0855 0
M  V30 52 H -2.638 4.5306 -0.223 0
M  V30 53 H -4.0402 3.5506 0.243 0
M  V30 54 H 1.355 5.5412 -4.6241 0
M  V30 55 H -4.9067 -1.6914 -0.1155 0
M  V30 56 H -2.824 0.0877 3.1957 0
M  V30 57 H -4.397 -1.6164 2.3121 0
M  V30 END ATOM
M  V30 BEGIN BOND
M  V30 1 1 1 2
M  V30 2 1 1 3
M  V30 3 2 2 4
M  V30 4 1 2 5
M  V30 5 1 3 6
M  V30 6 1 4 7
M  V30 7 2 5 8
M  V30 8 1 6 9
M  V30 9 2 7 10
M  V30 10 1 9 11
M  V30 11 1 9 12
M  V30 12 1 10 13
M  V30 13 1 13 14
M  V30 14 2 13 15
M  V30 15 2 14 16
M  V30 16 1 14 17
M  V30 17 1 15 18
M  V30 18 1 15 19
M  V30 19 1 16 20
M  V30 20 2 17 21
M  V30 21 2 18 22
M  V30 22 1 18 23
M  V30 23 1 19 24
M  V30 24 2 20 25
M  V30 25 1 22 26
M  V30 26 2 23 27
M  V30 27 2 26 28
M  V30 28 1 8 10
M  V30 29 1 21 25
M  V30 30 1 27 28
M  V30 31 1 3 29
M  V30 32 1 3 30
M  V30 33 1 4 31
M  V30 34 1 5 32
M  V30 35 1 6 33
M  V30 36 1 6 34
M  V30 37 1 7 35
M  V30 38 1 8 36
M  V30 39 1 11 37
M  V30 40 1 11 38
M  V30 41 1 11 39
M  V30 42 1 12 40
M  V30 43 1 12 41
M  V30 44 1 12 42
M  V30 45 1 16 43
M  V30 46 1 17 44
M  V30 47 1 19 45
M  V30 48 1 19 46
M  V30 49 1 20 47
M  V30 50 1 21 48
M  V30 51 1 22 49
M  V30 52 1 23 50
M  V30 53 1 24 51
M  V30 54 1 24 52
M  V30 55 1 24 53
M  V30 56 1 25 54
M  V30 57 1 26 55
M  V30 58 1 27 56
M  V30 59 1 28 57
M  V30 END BOND
M  V30 END CTAB
M  END
>  <level_0>
969

>  <index>
969

>  <NO.>
970

>  <Name>
s123

>  <SMILES>
CC/C(=C(\c1ccccc1)c1ccc(OCCN(C)C)cc1)c1ccccc1

>  <logBB>
0.92

>  <Class>
1

>  <MW>
371.22

>  <nHBAcc>
2

>  <nHBDon>
0

>  <SLogP>
6.0

>  <TopoPSA>
12.47

>  <MMFF94 Energy>
106.28

$$$$
Oc1ccc2c(Oc3ccc(OCCN4CCCCC4)cc3)c(-c3ccc(F)c(F)c3)ccc2c1
Actelion Java MolfileCreator 2.0

  0  0  0  0  0  0              0 V3000
M  V30 BEGIN CTAB
M  V30 COUNTS 62 66 0 0 0
M  V30 BEGIN ATOM
M  V30 1 F 3.2127 -2.4088 -3.3735 0
M  V30 2 C 3.7078 -1.3088 -2.789 0
M  V30 3 C 4.16 -0.249 -3.5637 0
M  V30 4 C 3.7665 -1.244 -1.3995 0
M  V30 5 F 4.1055 -0.3176 -4.9009 0
M  V30 6 C 4.6774 0.8902 -2.9599 0
M  V30 7 C 4.2813 -0.1015 -0.7644 0
M  V30 8 C 4.7385 0.9623 -1.5651 0
M  V30 9 C 4.3357 -0.0182 0.7043 0
M  V30 10 C 3.5848 0.9219 1.445 0
M  V30 11 C 5.17 -0.8924 1.4146 0
M  V30 12 O 2.7505 1.813 0.7908 0
M  V30 13 C 3.6965 1.0312 2.8549 0
M  V30 14 C 5.274 -0.8203 2.8064 0
M  V30 15 C 1.5686 1.3148 0.2822 0
M  V30 16 C 4.5528 0.1349 3.5369 0
M  V30 17 C 2.9859 1.9871 3.614 0
M  V30 18 C 0.8615 0.2415 0.8289 0
M  V30 19 C 1.0603 1.9791 -0.8332 0
M  V30 20 C 4.6749 0.2102 4.9354 0
M  V30 21 C 3.1157 2.0521 5.0018 0
M  V30 22 C -0.3355 -0.1848 0.2407 0
M  V30 23 C -0.1328 1.5508 -1.4174 0
M  V30 24 C 3.9578 1.1641 5.6512 0
M  V30 25 C -0.8356 0.4663 -0.8873 0
M  V30 26 O 4.0567 1.2602 7.0076 0
M  V30 27 O -1.9836 0.151 -1.5581 0
M  V30 28 C -2.7573 -0.9402 -1.0573 0
M  V30 29 C -3.9974 -1.1494 -1.9504 0
M  V30 30 N -4.9489 -0.0204 -1.9942 0
M  V30 31 C -5.5976 0.2787 -0.7112 0
M  V30 32 C -5.9558 -0.1953 -3.0524 0
M  V30 33 C -6.641 -0.7585 -0.289 0
M  V30 34 C -7.0192 -1.2479 -2.7272 0
M  V30 35 C -7.6835 -0.9685 -1.3828 0
M  V30 36 H 3.3922 -2.0834 -0.8203 0
M  V30 37 H 5.0272 1.7139 -3.5738 0
M  V30 38 H 5.1409 1.8602 -1.0981 0
M  V30 39 H 5.7648 -1.6331 0.8824 0
M  V30 40 H 5.9392 -1.5158 3.3149 0
M  V30 41 H 2.3191 2.6935 3.1227 0
M  V30 42 H 1.2194 -0.2735 1.7155 0
M  V30 43 H 1.596 2.8238 -1.257 0
M  V30 44 H 5.3329 -0.4788 5.457 0
M  V30 45 H 2.5608 2.7939 5.5692 0
M  V30 46 H -0.8519 -1.025 0.6919 0
M  V30 47 H -0.521 2.0662 -2.2927 0
M  V30 48 H 4.6859 0.5922 7.3248 0
M  V30 49 H -3.0542 -0.7624 -0.0183 0
M  V30 50 H -2.1566 -1.8575 -1.1005 0
M  V30 51 H -3.6221 -1.313 -2.9691 0
M  V30 52 H -4.4959 -2.0745 -1.6401 0
M  V30 53 H -6.0912 1.256 -0.799 0
M  V30 54 H -4.8606 0.411 0.0871 0
M  V30 55 H -5.4712 -0.4397 -4.0056 0
M  V30 56 H -6.4517 0.77 -3.2195 0
M  V30 57 H -7.1384 -0.4255 0.6292 0
M  V30 58 H -6.1537 -1.712 -0.0542 0
M  V30 59 H -6.5693 -2.2476 -2.7145 0
M  V30 60 H -7.7802 -1.2564 -3.516 0
M  V30 61 H -8.3506 -1.7947 -1.1134 0
M  V30 62 H -8.3061 -0.069 -1.4668 0
M  V30 END ATOM
M  V30 BEGIN BOND
M  V30 1 1 1 2
M  V30 2 2 2 3
M  V30 3 1 2 4
M  V30 4 1 3 5
M  V30 5 1 3 6
M  V30 6 2 4 7
M  V30 7 2 6 8
M  V30 8 1 7 9
M  V30 9 2 9 10
M  V30 10 1 9 11
M  V30 11 1 10 12
M  V30 12 1 10 13
M  V30 13 2 11 14
M  V30 14 1 12 15
M  V30 15 1 13 16
M  V30 16 2 13 17
M  V30 17 2 15 18
M  V30 18 1 15 19
M  V30 19 2 16 20
M  V30 20 1 17 21
M  V30 21 1 18 22
M  V30 22 2 19 23
M  V30 23 1 20 24
M  V30 24 2 22 25
M  V30 25 1 24 26
M  V30 26 1 25 27
M  V30 27 1 27 28
M  V30 28 1 28 29
M  V30 29 1 29 30
M  V30 30 1 30 31
M  V30 31 1 30 32
M  V30 32 1 31 33
M  V30 33 1 32 34
M  V30 34 1 33 35
M  V30 35 1 7 8
M  V30 36 1 14 16
M  V30 37 2 21 24
M  V30 38 1 23 25
M  V30 39 1 34 35
M  V30 40 1 4 36
M  V30 41 1 6 37
M  V30 42 1 8 38
M  V30 43 1 11 39
M  V30 44 1 14 40
M  V30 45 1 17 41
M  V30 46 1 18 42
M  V30 47 1 19 43
M  V30 48 1 20 44
M  V30 49 1 21 45
M  V30 50 1 22 46
M  V30 51 1 23 47
M  V30 52 1 26 48
M  V30 53 1 28 49
M  V30 54 1 28 50
M  V30 55 1 29 51
M  V30 56 1 29 52
M  V30 57 1 31 53
M  V30 58 1 31 54
M  V30 59 1 32 55
M  V30 60 1 32 56
M  V30 61 1 33 57
M  V30 62 1 33 58
M  V30 63 1 34 59
M  V30 64 1 34 60
M  V30 65 1 35 61
M  V30 66 1 35 62
M  V30 END BOND
M  V30 END CTAB
M  END
>  <level_0>
973

>  <index>
973

>  <NO.>
974

>  <Name>
chembl244206

>  <SMILES>
Oc1ccc2c(Oc3ccc(OCCN4CCCCC4)cc3)c(-c3ccc(F)c(F)c3)ccc2c1

>  <logBB>
0.92

>  <Class>
1

>  <MW>
475.2

>  <nHBAcc>
4

>  <nHBDon>
1

>  <SLogP>
7.15

>  <TopoPSA>
41.93

>  <MMFF94 Energy>
105.94

$$$$
CC(C)(C)c1ccc(OC(F)(F)F)c(CNC2CCCNC2c2ccccc2)c1
Actelion Java MolfileCreator 2.0

  0  0  0  0  0  0              0 V3000
M  V30 BEGIN CTAB
M  V30 COUNTS 58 60 0 0 0
M  V30 BEGIN ATOM
M  V30 1 F -3.9897 0.3187 2.552 0
M  V30 2 C -3.5104 0.6248 1.3261 0
M  V30 3 F -3.3191 1.9585 1.2386 0
M  V30 4 F -4.4474 0.2719 0.4178 0
M  V30 5 O -2.3169 -0.0874 1.0535 0
M  V30 6 C -1.2269 0.1383 1.8487 0
M  V30 7 C -0.0464 -0.5258 1.4713 0
M  V30 8 C -1.2067 0.9621 2.9742 0
M  V30 9 C 1.1317 -0.323 2.2161 0
M  V30 10 C 0.0027 -1.4159 0.245 0
M  V30 11 C -0.0288 1.1389 3.7145 0
M  V30 12 C 1.1674 0.5058 3.3527 0
M  V30 13 N 0.2175 -0.6086 -0.9583 0
M  V30 14 C 2.4799 0.6923 4.1335 0
M  V30 15 C -0.0119 -1.3803 -2.201 0
M  V30 16 C 2.9785 -0.6757 4.6475 0
M  V30 17 C 3.5508 1.3084 3.2074 0
M  V30 18 C 2.3491 1.6207 5.3623 0
M  V30 19 C -0.2829 -0.4369 -3.4307 0
M  V30 20 C 1.2066 -2.2714 -2.4961 0
M  V30 21 N -0.4216 -1.2 -4.6864 0
M  V30 22 C -1.5257 0.4225 -3.213 0
M  V30 23 C 1.0555 -2.9799 -3.8398 0
M  V30 24 C 0.7744 -1.9893 -4.9649 0
M  V30 25 C -1.3968 1.8029 -2.9893 0
M  V30 26 C -2.8101 -0.1447 -3.1893 0
M  V30 27 C -2.5217 2.5914 -2.7399 0
M  V30 28 C -3.9334 0.6456 -2.9412 0
M  V30 29 C -3.7886 2.0125 -2.7144 0
M  V30 30 H -2.0884 1.4962 3.3173 0
M  V30 31 H 2.0399 -0.8234 1.8832 0
M  V30 32 H -0.9296 -1.9913 0.1866 0
M  V30 33 H 0.8097 -2.1484 0.3627 0
M  V30 34 H -0.0812 1.7957 4.5791 0
M  V30 35 H -0.4721 0.1461 -0.9267 0
M  V30 36 H -0.895 -2.0221 -2.0717 0
M  V30 37 H 3.2073 -1.3679 3.8299 0
M  V30 38 H 3.895 -0.5655 5.2392 0
M  V30 39 H 2.226 -1.1558 5.2844 0
M  V30 40 H 3.2148 2.2698 2.8009 0
M  V30 41 H 4.4877 1.4844 3.749 0
M  V30 42 H 3.7889 0.658 2.3587 0
M  V30 43 H 1.6235 1.2318 6.0863 0
M  V30 44 H 2.0359 2.6309 5.0736 0
M  V30 45 H 3.3071 1.719 5.8871 0
M  V30 46 H 0.5789 0.2366 -3.5455 0
M  V30 47 H 2.121 -1.6636 -2.5124 0
M  V30 48 H 1.3383 -3.0256 -1.7118 0
M  V30 49 H -0.5782 -0.5373 -5.4459 0
M  V30 50 H 0.2395 -3.7112 -3.7777 0
M  V30 51 H 1.9699 -3.5411 -4.0634 0
M  V30 52 H 0.6233 -2.5416 -5.8988 0
M  V30 53 H 1.6381 -1.331 -5.119 0
M  V30 54 H -0.4147 2.2713 -2.9936 0
M  V30 55 H -2.9376 -1.211 -3.3655 0
M  V30 56 H -2.4085 3.6577 -2.5616 0
M  V30 57 H -4.9212 0.1924 -2.9215 0
M  V30 58 H -4.6639 2.6261 -2.5178 0
M  V30 END ATOM
M  V30 BEGIN BOND
M  V30 1 1 1 2
M  V30 2 1 2 3
M  V30 3 1 2 4
M  V30 4 1 2 5
M  V30 5 1 5 6
M  V30 6 2 6 7
M  V30 7 1 6 8
M  V30 8 1 7 9
M  V30 9 1 7 10
M  V30 10 2 8 11
M  V30 11 2 9 12
M  V30 12 1 10 13
M  V30 13 1 12 14
M  V30 14 1 13 15
M  V30 15 1 14 16
M  V30 16 1 14 17
M  V30 17 1 14 18
M  V30 18 1 15 19
M  V30 19 1 15 20
M  V30 20 1 19 21
M  V30 21 1 19 22
M  V30 22 1 20 23
M  V30 23 1 21 24
M  V30 24 2 22 25
M  V30 25 1 22 26
M  V30 26 1 25 27
M  V30 27 2 26 28
M  V30 28 2 27 29
M  V30 29 1 11 12
M  V30 30 1 23 24
M  V30 31 1 28 29
M  V30 32 1 8 30
M  V30 33 1 9 31
M  V30 34 1 10 32
M  V30 35 1 10 33
M  V30 36 1 11 34
M  V30 37 1 13 35
M  V30 38 1 15 36
M  V30 39 1 16 37
M  V30 40 1 16 38
M  V30 41 1 16 39
M  V30 42 1 17 40
M  V30 43 1 17 41
M  V30 44 1 17 42
M  V30 45 1 18 43
M  V30 46 1 18 44
M  V30 47 1 18 45
M  V30 48 1 19 46
M  V30 49 1 20 47
M  V30 50 1 20 48
M  V30 51 1 21 49
M  V30 52 1 23 50
M  V30 53 1 23 51
M  V30 54 1 24 52
M  V30 55 1 24 53
M  V30 56 1 25 54
M  V30 57 1 26 55
M  V30 58 1 27 56
M  V30 59 1 28 57
M  V30 60 1 29 58
M  V30 END BOND
M  V30 END CTAB
M  END
>  <level_0>
978

>  <index>
978

>  <NO.>
979

>  <Name>
145742-01-4

>  <SMILES>
CC(C)(C)c1ccc(OC(F)(F)F)c(CNC2CCCNC2c2ccccc2)c1

>  <logBB>
0.96

>  <Class>
1

>  <MW>
406.22

>  <nHBAcc>
3

>  <nHBDon>
2

>  <SLogP>
5.47

>  <TopoPSA>
33.29

>  <MMFF94 Energy>
86.712

$$$$
O=C(NCCCCN1CCC(Oc2cccc(C(F)(F)F)c2)CC1)c1ccc(Br)cc1
Actelion Java MolfileCreator 2.0

  0  0  0  0  0  0              0 V3000
M  V30 BEGIN CTAB
M  V30 COUNTS 57 59 0 0 0
M  V30 BEGIN ATOM
M  V30 1 Br -8.8961 5.4114 5.1686 0
M  V30 2 C -7.971 4.1945 4.0567 0
M  V30 3 C -8.5324 3.8028 2.8427 0
M  V30 4 C -6.7356 3.6896 4.4625 0
M  V30 5 C -7.8475 2.9021 2.0233 0
M  V30 6 C -6.0487 2.7888 3.6426 0
M  V30 7 C -6.5976 2.4014 2.4125 0
M  V30 8 C -5.9081 1.4416 1.5062 0
M  V30 9 O -6.5624 0.7393 0.7444 0
M  V30 10 N -4.5297 1.4309 1.5589 0
M  V30 11 C -3.7562 0.5555 0.7018 0
M  V30 12 C -2.3436 0.3588 1.2412 0
M  V30 13 C -1.5245 -0.5604 0.3324 0
M  V30 14 C -0.1028 -0.7513 0.8778 0
M  V30 15 N 0.6774 -1.7394 0.111 0
M  V30 16 C 1.8971 -2.094 0.8588 0
M  V30 17 C 1.0333 -1.2404 -1.2276 0
M  V30 18 C 2.6974 -3.1766 0.1354 0
M  V30 19 C 1.8043 -2.2952 -2.0244 0
M  V30 20 C 3.0638 -2.7534 -1.2886 0
M  V30 21 O 4.0106 -1.6802 -1.1863 0
M  V30 22 C 4.8968 -1.4678 -2.203 0
M  V30 23 C 5.835 -0.4632 -1.9457 0
M  V30 24 C 4.932 -2.1329 -3.427 0
M  V30 25 C 6.8161 -0.1232 -2.8909 0
M  V30 26 C 5.8972 -1.7995 -4.3815 0
M  V30 27 C 6.8327 -0.7994 -4.1176 0
M  V30 28 C 7.8036 0.9775 -2.6002 0
M  V30 29 F 8.1613 1.043 -1.2872 0
M  V30 30 F 8.9693 0.8495 -3.2946 0
M  V30 31 F 7.3149 2.2085 -2.9165 0
M  V30 32 H -9.4993 4.186 2.5264 0
M  V30 33 H -6.3057 3.9823 5.4173 0
M  V30 34 H -8.2893 2.5909 1.0781 0
M  V30 35 H -5.1056 2.3782 3.9915 0
M  V30 36 H -4.0444 2.1473 2.0806 0
M  V30 37 H -3.7318 1.0144 -0.2928 0
M  V30 38 H -4.2734 -0.4067 0.6147 0
M  V30 39 H -2.3936 -0.0637 2.2525 0
M  V30 40 H -1.844 1.3316 1.3311 0
M  V30 41 H -2.0235 -1.5343 0.2536 0
M  V30 42 H -1.4971 -0.125 -0.6723 0
M  V30 43 H 0.4193 0.2136 0.9173 0
M  V30 44 H -0.198 -1.1024 1.9139 0
M  V30 45 H 2.5245 -1.2086 1.0272 0
M  V30 46 H 1.6239 -2.487 1.8461 0
M  V30 47 H 1.6219 -0.3163 -1.1586 0
M  V30 48 H 0.1304 -1.0056 -1.8008 0
M  V30 49 H 2.1113 -4.1038 0.1037 0
M  V30 50 H 3.6087 -3.383 0.7095 0
M  V30 51 H 1.1542 -3.1606 -2.2057 0
M  V30 52 H 2.0574 -1.871 -3.002 0
M  V30 53 H 3.5145 -3.6243 -1.7783 0
M  V30 54 H 5.7999 0.0592 -0.9901 0
M  V30 55 H 4.2189 -2.9099 -3.6802 0
M  V30 56 H 5.9159 -2.3207 -5.336 0
M  V30 57 H 7.5756 -0.5492 -4.8736 0
M  V30 END ATOM
M  V30 BEGIN BOND
M  V30 1 1 1 2
M  V30 2 2 2 3
M  V30 3 1 2 4
M  V30 4 1 3 5
M  V30 5 2 4 6
M  V30 6 2 5 7
M  V30 7 1 7 8
M  V30 8 2 8 9
M  V30 9 1 8 10
M  V30 10 1 10 11
M  V30 11 1 11 12
M  V30 12 1 12 13
M  V30 13 1 13 14
M  V30 14 1 14 15
M  V30 15 1 15 16
M  V30 16 1 15 17
M  V30 17 1 16 18
M  V30 18 1 17 19
M  V30 19 1 18 20
M  V30 20 1 20 21
M  V30 21 1 21 22
M  V30 22 2 22 23
M  V30 23 1 22 24
M  V30 24 1 23 25
M  V30 25 2 24 26
M  V30 26 2 25 27
M  V30 27 1 25 28
M  V30 28 1 28 29
M  V30 29 1 28 30
M  V30 30 1 28 31
M  V30 31 1 6 7
M  V30 32 1 19 20
M  V30 33 1 26 27
M  V30 34 1 3 32
M  V30 35 1 4 33
M  V30 36 1 5 34
M  V30 37 1 6 35
M  V30 38 1 10 36
M  V30 39 1 11 37
M  V30 40 1 11 38
M  V30 41 1 12 39
M  V30 42 1 12 40
M  V30 43 1 13 41
M  V30 44 1 13 42
M  V30 45 1 14 43
M  V30 46 1 14 44
M  V30 47 1 16 45
M  V30 48 1 16 46
M  V30 49 1 17 47
M  V30 50 1 17 48
M  V30 51 1 18 49
M  V30 52 1 18 50
M  V30 53 1 19 51
M  V30 54 1 19 52
M  V30 55 1 20 53
M  V30 56 1 23 54
M  V30 57 1 24 55
M  V30 58 1 26 56
M  V30 59 1 27 57
M  V30 END BOND
M  V30 END CTAB
M  END
>  <level_0>
1005

>  <index>
1005

>  <NO.>
1006

>  <Name>
schembl7050625

>  <SMILES>
O=C(NCCCCN1CCC(Oc2cccc(C(F)(F)F)c2)CC1)c1ccc(Br)cc1

>  <logBB>
1.04

>  <Class>
1

>  <MW>
498.11

>  <nHBAcc>
3

>  <nHBDon>
1

>  <SLogP>
5.52

>  <TopoPSA>
41.57

>  <MMFF94 Energy>
47.829

$$$$
COc1ccc(CCN2CCC(Nc3nc4ccccc4n3Cc3ccc(F)cc3)CC2)cc1
Actelion Java MolfileCreator 2.0

  0  0  0  0  0  0              0 V3000
M  V30 BEGIN CTAB
M  V30 COUNTS 65 69 0 0 0
M  V30 BEGIN ATOM
M  V30 1 F 4.9456 -0.2388 0.1592 0
M  V30 2 C 3.8676 -0.0453 0.9309 0
M  V30 3 C 3.4912 -1.0258 1.8401 0
M  V30 4 C 3.1441 1.1344 0.8143 0
M  V30 5 C 2.3667 -0.8276 2.6439 0
M  V30 6 C 2.0201 1.3367 1.6174 0
M  V30 7 C 1.6089 0.3508 2.532 0
M  V30 8 C 0.387 0.584 3.394 0
M  V30 9 N -0.5666 -0.5142 3.3421 0
M  V30 10 C -1.3502 -0.8653 2.2611 0
M  V30 11 C -0.8787 -1.3559 4.3893 0
M  V30 12 N -2.1424 -1.8668 2.564 0
M  V30 13 N -1.2488 -0.2329 1.0765 0
M  V30 14 C -1.8661 -2.186 3.867 0
M  V30 15 C -0.4122 -1.4771 5.7055 0
M  V30 16 C -1.9726 -0.7108 -0.0948 0
M  V30 17 C -2.428 -3.186 4.6751 0
M  V30 18 C -0.9842 -2.4811 6.4962 0
M  V30 19 C -3.1782 0.1934 -0.3589 0
M  V30 20 C -1.0117 -0.7142 -1.2875 0
M  V30 21 C -1.9765 -3.3233 5.9927 0
M  V30 22 C -3.8162 -0.1102 -1.7178 0
M  V30 23 C -1.7603 -1.0109 -2.5813 0
M  V30 24 N -2.8669 -0.0847 -2.8473 0
M  V30 25 C -2.4625 1.2983 -3.1759 0
M  V30 26 C -1.4972 1.4683 -4.3723 0
M  V30 27 C -0.0486 1.6524 -3.973 0
M  V30 28 C 0.9234 0.7131 -4.3373 0
M  V30 29 C 0.3486 2.7733 -3.232 0
M  V30 30 C 2.2549 0.8638 -3.9311 0
M  V30 31 C 1.6782 2.9241 -2.8317 0
M  V30 32 C 2.6356 1.9658 -3.1666 0
M  V30 33 O 3.8929 2.2239 -2.6939 0
M  V30 34 C 4.8796 1.2245 -2.9234 0
M  V30 35 H 4.0712 -1.9401 1.9156 0
M  V30 36 H 3.4579 1.8879 0.0981 0
M  V30 37 H 2.0799 -1.6077 3.3473 0
M  V30 38 H 1.466 2.2679 1.5156 0
M  V30 39 H -0.1575 1.4837 3.0823 0
M  V30 40 H 0.7009 0.7428 4.4305 0
M  V30 41 H -0.5996 0.5257 0.911 0
M  V30 42 H 0.3596 -0.8309 6.1083 0
M  V30 43 H -2.3277 -1.7404 0.0485 0
M  V30 44 H -3.1979 -3.8358 4.2743 0
M  V30 45 H -0.6484 -2.6072 7.5238 0
M  V30 46 H -2.8827 1.2489 -0.307 0
M  V30 47 H -3.9252 0.0528 0.4325 0
M  V30 48 H -0.4885 0.2466 -1.3612 0
M  V30 49 H -0.2332 -1.4716 -1.1315 0
M  V30 50 H -2.4052 -4.0954 6.6271 0
M  V30 51 H -4.2805 -1.1045 -1.6788 0
M  V30 52 H -4.6423 0.5877 -1.9023 0
M  V30 53 H -2.1701 -2.0289 -2.5263 0
M  V30 54 H -1.0664 -1.0471 -3.4245 0
M  V30 55 H -2.0719 1.8201 -2.2957 0
M  V30 56 H -3.3836 1.8274 -3.456 0
M  V30 57 H -1.6084 0.6377 -5.0803 0
M  V30 58 H -1.7902 2.3658 -4.9344 0
M  V30 59 H 0.6502 -0.1557 -4.9326 0
M  V30 60 H -0.3747 3.5371 -2.9557 0
M  V30 61 H 2.9666 0.1016 -4.2298 0
M  V30 62 H 1.9701 3.7961 -2.2518 0
M  V30 63 H 4.5856 0.2662 -2.4827 0
M  V30 64 H 5.8025 1.5476 -2.4321 0
M  V30 65 H 5.0891 1.12 -3.993 0
M  V30 END ATOM
M  V30 BEGIN BOND
M  V30 1 1 1 2
M  V30 2 2 2 3
M  V30 3 1 2 4
M  V30 4 1 3 5
M  V30 5 2 4 6
M  V30 6 2 5 7
M  V30 7 1 7 8
M  V30 8 1 8 9
M  V30 9 1 9 10
M  V30 10 1 9 11
M  V30 11 2 10 12
M  V30 12 1 10 13
M  V30 13 2 11 14
M  V30 14 1 11 15
M  V30 15 1 13 16
M  V30 16 1 14 17
M  V30 17 2 15 18
M  V30 18 1 16 19
M  V30 19 1 16 20
M  V30 20 2 17 21
M  V30 21 1 19 22
M  V30 22 1 20 23
M  V30 23 1 22 24
M  V30 24 1 24 25
M  V30 25 1 25 26
M  V30 26 1 26 27
M  V30 27 2 27 28
M  V30 28 1 27 29
M  V30 29 1 28 30
M  V30 30 2 29 31
M  V30 31 2 30 32
M  V30 32 1 32 33
M  V30 33 1 33 34
M  V30 34 1 6 7
M  V30 35 1 12 14
M  V30 36 1 18 21
M  V30 37 1 23 24
M  V30 38 1 31 32
M  V30 39 1 3 35
M  V30 40 1 4 36
M  V30 41 1 5 37
M  V30 42 1 6 38
M  V30 43 1 8 39
M  V30 44 1 8 40
M  V30 45 1 13 41
M  V30 46 1 15 42
M  V30 47 1 16 43
M  V30 48 1 17 44
M  V30 49 1 18 45
M  V30 50 1 19 46
M  V30 51 1 19 47
M  V30 52 1 20 48
M  V30 53 1 20 49
M  V30 54 1 21 50
M  V30 55 1 22 51
M  V30 56 1 22 52
M  V30 57 1 23 53
M  V30 58 1 23 54
M  V30 59 1 25 55
M  V30 60 1 25 56
M  V30 61 1 26 57
M  V30 62 1 26 58
M  V30 63 1 28 59
M  V30 64 1 29 60
M  V30 65 1 30 61
M  V30 66 1 31 62
M  V30 67 1 34 63
M  V30 68 1 34 64
M  V30 69 1 34 65
M  V30 END BOND
M  V30 END CTAB
M  END
>  <level_0>
1016

>  <index>
1016

>  <NO.>
1017

>  <Name>
astemizole

>  <SMILES>
COc1ccc(CCN2CCC(Nc3nc4ccccc4n3Cc3ccc(F)cc3)CC2)cc1

>  <logBB>
1.1

>  <Class>
1

>  <MW>
458.25

>  <nHBAcc>
4

>  <nHBDon>
1

>  <SLogP>
5.35

>  <TopoPSA>
42.32

>  <MMFF94 Energy>
50.406

$$$$
O=C(CCC1CCN(Cc2ccccc2)CC1)c1ccc2c(c1)NCCCC2
Actelion Java MolfileCreator 2.0

  0  0  0  0  0  0              0 V3000
M  V30 BEGIN CTAB
M  V30 COUNTS 60 63 0 0 0
M  V30 BEGIN ATOM
M  V30 1 O 1.8278 -1.2712 1.8278 0
M  V30 2 C 1.9327 -0.2857 1.0996 0
M  V30 3 C 2.9002 0.7932 1.4671 0
M  V30 4 C 1.0986 -0.1188 -0.1617 0
M  V30 5 C 2.9906 1.9953 0.7549 0
M  V30 6 C 3.7335 0.5926 2.5685 0
M  V30 7 C 0.2795 -1.3747 -0.4783 0
M  V30 8 C 3.9053 2.999 1.1213 0
M  V30 9 C 4.6505 1.575 2.94 0
M  V30 10 C -0.4736 -1.2897 -1.823 0
M  V30 11 N 3.8809 4.1951 0.4141 0
M  V30 12 C 4.7455 2.7833 2.2266 0
M  V30 13 C -1.1055 -2.6429 -2.1857 0
M  V30 14 C -1.572 -0.2173 -1.8499 0
M  V30 15 C 3.6448 5.4402 1.124 0
M  V30 16 C 5.8349 3.7583 2.6097 0
M  V30 17 C -2.3423 -2.9641 -1.3407 0
M  V30 18 C -2.7906 -0.6039 -1.0078 0
M  V30 19 C 4.9022 5.9781 1.7866 0
M  V30 20 C 5.3417 5.1504 2.9903 0
M  V30 21 N -3.3482 -1.8934 -1.4384 0
M  V30 22 C -4.549 -2.2129 -0.6429 0
M  V30 23 C -5.3553 -3.3685 -1.1988 0
M  V30 24 C -5.8378 -3.3324 -2.5159 0
M  V30 25 C -5.6537 -4.4812 -0.3993 0
M  V30 26 C -6.5946 -4.3888 -3.0245 0
M  V30 27 C -6.4115 -5.5372 -0.9096 0
M  V30 28 C -6.8813 -5.4907 -2.221 0
M  V30 29 H 0.4303 0.734 -0.008 0
M  V30 30 H 1.7713 0.0872 -1.0013 0
M  V30 31 H 2.3352 2.1864 -0.089 0
M  V30 32 H 3.6823 -0.3328 3.139 0
M  V30 33 H 0.9611 -2.2351 -0.5124 0
M  V30 34 H -0.4135 -1.5715 0.3475 0
M  V30 35 H 5.3046 1.3834 3.7885 0
M  V30 36 H 0.2639 -1.0453 -2.5988 0
M  V30 37 H 3.5527 4.1591 -0.5444 0
M  V30 38 H -0.3692 -3.4487 -2.0818 0
M  V30 39 H -1.3959 -2.6253 -3.2449 0
M  V30 40 H -1.188 0.7534 -1.5209 0
M  V30 41 H -1.896 -0.0743 -2.89 0
M  V30 42 H 3.3039 6.1805 0.3903 0
M  V30 43 H 2.8294 5.329 1.8497 0
M  V30 44 H 6.3893 3.3602 3.4695 0
M  V30 45 H 6.5623 3.8153 1.7898 0
M  V30 46 H -2.7537 -3.9087 -1.7147 0
M  V30 47 H -2.0507 -3.1342 -0.2966 0
M  V30 48 H -3.5453 0.1822 -1.1347 0
M  V30 49 H -2.5251 -0.6233 0.0565 0
M  V30 50 H 5.7194 6.0437 1.0578 0
M  V30 51 H 4.702 7.0005 2.1302 0
M  V30 52 H 6.1664 5.684 3.4792 0
M  V30 53 H 4.5288 5.085 3.7239 0
M  V30 54 H -4.2755 -2.4046 0.4033 0
M  V30 55 H -5.2267 -1.3483 -0.6289 0
M  V30 56 H -5.6118 -2.4782 -3.1509 0
M  V30 57 H -5.2948 -4.5342 0.6257 0
M  V30 58 H -6.9572 -4.3514 -4.048 0
M  V30 59 H -6.6347 -6.3969 -0.2834 0
M  V30 60 H -7.4695 -6.3137 -2.6176 0
M  V30 END ATOM
M  V30 BEGIN BOND
M  V30 1 2 1 2
M  V30 2 1 2 3
M  V30 3 1 2 4
M  V30 4 2 3 5
M  V30 5 1 3 6
M  V30 6 1 4 7
M  V30 7 1 5 8
M  V30 8 2 6 9
M  V30 9 1 7 10
M  V30 10 1 8 11
M  V30 11 2 8 12
M  V30 12 1 10 13
M  V30 13 1 10 14
M  V30 14 1 11 15
M  V30 15 1 12 16
M  V30 16 1 13 17
M  V30 17 1 14 18
M  V30 18 1 15 19
M  V30 19 1 16 20
M  V30 20 1 17 21
M  V30 21 1 21 22
M  V30 22 1 22 23
M  V30 23 2 23 24
M  V30 24 1 23 25
M  V30 25 1 24 26
M  V30 26 2 25 27
M  V30 27 2 26 28
M  V30 28 1 9 12
M  V30 29 1 18 21
M  V30 30 1 19 20
M  V30 31 1 27 28
M  V30 32 1 4 29
M  V30 33 1 4 30
M  V30 34 1 5 31
M  V30 35 1 6 32
M  V30 36 1 7 33
M  V30 37 1 7 34
M  V30 38 1 9 35
M  V30 39 1 10 36
M  V30 40 1 11 37
M  V30 41 1 13 38
M  V30 42 1 13 39
M  V30 43 1 14 40
M  V30 44 1 14 41
M  V30 45 1 15 42
M  V30 46 1 15 43
M  V30 47 1 16 44
M  V30 48 1 16 45
M  V30 49 1 17 46
M  V30 50 1 17 47
M  V30 51 1 18 48
M  V30 52 1 18 49
M  V30 53 1 19 50
M  V30 54 1 19 51
M  V30 55 1 20 52
M  V30 56 1 20 53
M  V30 57 1 22 54
M  V30 58 1 22 55
M  V30 59 1 24 56
M  V30 60 1 25 57
M  V30 61 1 26 58
M  V30 62 1 27 59
M  V30 63 1 28 60
M  V30 END BOND
M  V30 END CTAB
M  END
>  <level_0>
1024

>  <index>
1024

>  <NO.>
1025

>  <Name>
zanapezil

>  <SMILES>
O=C(CCC1CCN(Cc2ccccc2)CC1)c1ccc2c(c1)NCCCC2

>  <logBB>
1.14

>  <Class>
1

>  <MW>
376.25

>  <nHBAcc>
3

>  <nHBDon>
1

>  <SLogP>
5.31

>  <TopoPSA>
32.34

>  <MMFF94 Energy>
63.757

$$$$
O=C(NCCCCN1CCC(Nc2cccc(C(F)(F)F)c2)CC1)c1ccc(Br)cc1
Actelion Java MolfileCreator 2.0

  0  0  0  0  0  0              0 V3000
M  V30 BEGIN CTAB
M  V30 COUNTS 58 60 0 0 0
M  V30 BEGIN ATOM
M  V30 1 Br -0.4019 10.3275 -3.2992 0
M  V30 2 C -0.236 8.5053 -2.8249 0
M  V30 3 C -0.9661 7.5411 -3.5198 0
M  V30 4 C 0.6079 8.1371 -1.7786 0
M  V30 5 C -0.8462 6.1921 -3.1713 0
M  V30 6 C 0.7276 6.7897 -1.4288 0
M  V30 7 C 0.0121 5.8103 -2.1311 0
M  V30 8 C 0.1711 4.3881 -1.7184 0
M  V30 9 O 0.4826 4.1141 -0.565 0
M  V30 10 N -0.0139 3.4386 -2.7021 0
M  V30 11 C 0.1459 2.0271 -2.4176 0
M  V30 12 C -0.6004 1.1693 -3.4345 0
M  V30 13 C -0.382 -0.3335 -3.2311 0
M  V30 14 C -0.9826 -0.8555 -1.9169 0
M  V30 15 N -0.9552 -2.3253 -1.8309 0
M  V30 16 C -1.8317 -2.8221 -0.7572 0
M  V30 17 C 0.393 -2.896 -1.6949 0
M  V30 18 C -1.2833 -2.5897 0.6507 0
M  V30 19 C 1.0299 -2.6672 -0.3241 0
M  V30 20 C 0.1167 -3.1893 0.7908 0
M  V30 21 N 0.6925 -2.8355 2.084 0
M  V30 22 C 0.4655 -3.4969 3.2754 0
M  V30 23 C 1.0818 -3.0138 4.4394 0
M  V30 24 C -0.313 -4.652 3.3918 0
M  V30 25 C 0.9243 -3.6465 5.6863 0
M  V30 26 C -0.4913 -5.291 4.6234 0
M  V30 27 C 0.1204 -4.7884 5.7679 0
M  V30 28 C 1.5824 -3.0775 6.9164 0
M  V30 29 F 2.7735 -2.4687 6.6554 0
M  V30 30 F 0.8105 -2.1387 7.5309 0
M  V30 31 F 1.8499 -4.0186 7.8657 0
M  V30 32 H -1.6372 7.8303 -4.325 0
M  V30 33 H 1.1716 8.8856 -1.2275 0
M  V30 34 H -1.4499 5.46 -3.6997 0
M  V30 35 H 1.3819 6.5032 -0.607 0
M  V30 36 H -0.101 3.7291 -3.6662 0
M  V30 37 H -0.2121 1.8326 -1.4016 0
M  V30 38 H 1.2199 1.8121 -2.4431 0
M  V30 39 H -0.2629 1.434 -4.4448 0
M  V30 40 H -1.6727 1.3994 -3.3998 0
M  V30 41 H -0.8456 -0.8621 -4.0737 0
M  V30 42 H 0.6928 -0.54 -3.2764 0
M  V30 43 H -0.4789 -0.3972 -1.0598 0
M  V30 44 H -2.0274 -0.5195 -1.884 0
M  V30 45 H -1.9831 -3.8994 -0.907 0
M  V30 46 H -2.8307 -2.3772 -0.844 0
M  V30 47 H 0.3236 -3.9774 -1.8747 0
M  V30 48 H 1.0615 -2.5267 -2.4792 0
M  V30 49 H -1.264 -1.516 0.8779 0
M  V30 50 H -1.965 -3.0422 1.3808 0
M  V30 51 H 1.2477 -1.6013 -0.1801 0
M  V30 52 H 1.9971 -3.1836 -0.2806 0
M  V30 53 H 0.068 -4.2798 0.6794 0
M  V30 54 H 1.1784 -1.9463 2.1369 0
M  V30 55 H 1.7053 -2.122 4.3802 0
M  V30 56 H -0.8079 -5.0808 2.5261 0
M  V30 57 H -1.1099 -6.1832 4.6838 0
M  V30 58 H -0.0274 -5.2926 6.7214 0
M  V30 END ATOM
M  V30 BEGIN BOND
M  V30 1 1 1 2
M  V30 2 2 2 3
M  V30 3 1 2 4
M  V30 4 1 3 5
M  V30 5 2 4 6
M  V30 6 2 5 7
M  V30 7 1 7 8
M  V30 8 2 8 9
M  V30 9 1 8 10
M  V30 10 1 10 11
M  V30 11 1 11 12
M  V30 12 1 12 13
M  V30 13 1 13 14
M  V30 14 1 14 15
M  V30 15 1 15 16
M  V30 16 1 15 17
M  V30 17 1 16 18
M  V30 18 1 17 19
M  V30 19 1 18 20
M  V30 20 1 20 21
M  V30 21 1 21 22
M  V30 22 2 22 23
M  V30 23 1 22 24
M  V30 24 1 23 25
M  V30 25 2 24 26
M  V30 26 2 25 27
M  V30 27 1 25 28
M  V30 28 1 28 29
M  V30 29 1 28 30
M  V30 30 1 28 31
M  V30 31 1 6 7
M  V30 32 1 19 20
M  V30 33 1 26 27
M  V30 34 1 3 32
M  V30 35 1 4 33
M  V30 36 1 5 34
M  V30 37 1 6 35
M  V30 38 1 10 36
M  V30 39 1 11 37
M  V30 40 1 11 38
M  V30 41 1 12 39
M  V30 42 1 12 40
M  V30 43 1 13 41
M  V30 44 1 13 42
M  V30 45 1 14 43
M  V30 46 1 14 44
M  V30 47 1 16 45
M  V30 48 1 16 46
M  V30 49 1 17 47
M  V30 50 1 17 48
M  V30 51 1 18 49
M  V30 52 1 18 50
M  V30 53 1 19 51
M  V30 54 1 19 52
M  V30 55 1 20 53
M  V30 56 1 21 54
M  V30 57 1 23 55
M  V30 58 1 24 56
M  V30 59 1 26 57
M  V30 60 1 27 58
M  V30 END BOND
M  V30 END CTAB
M  END
>  <level_0>
1026

>  <index>
1026

>  <NO.>
1027

>  <Name>
piperidinederivatives 2

>  <SMILES>
O=C(NCCCCN1CCC(Nc2cccc(C(F)(F)F)c2)CC1)c1ccc(Br)cc1

>  <logBB>
1.18

>  <Class>
1

>  <MW>
497.13

>  <nHBAcc>
3

>  <nHBDon>
2

>  <SLogP>
5.55

>  <TopoPSA>
44.37

>  <MMFF94 Energy>
42.017

$$$$
Oc1ccc2c(Oc3ccc(OCCN4CCCCC4)cc3)c(-c3ccc(F)cc3)ccc2c1
Actelion Java MolfileCreator 2.0

  0  0  0  0  0  0              0 V3000
M  V30 BEGIN CTAB
M  V30 COUNTS 62 66 0 0 0
M  V30 BEGIN ATOM
M  V30 1 F 0.1599 -3.2836 5.1292 0
M  V30 2 C 0.7667 -2.1953 4.6375 0
M  V30 3 C 2.1128 -2.2558 4.301 0
M  V30 4 C 0.0407 -1.0228 4.4721 0
M  V30 5 C 2.7447 -1.1216 3.7868 0
M  V30 6 C 0.6734 0.1119 3.9599 0
M  V30 7 C 2.0338 0.0781 3.6064 0
M  V30 8 C 2.698 1.2703 3.0557 0
M  V30 9 C 3.17 1.3361 1.7262 0
M  V30 10 C 2.894 2.3902 3.8755 0
M  V30 11 O 3.0033 0.2537 0.8781 0
M  V30 12 C 3.8728 2.4654 1.2331 0
M  V30 13 C 3.5574 3.5249 3.4008 0
M  V30 14 C 1.7341 0.0357 0.3829 0
M  V30 15 C 4.0565 3.5753 2.0914 0
M  V30 16 C 4.3913 2.54 -0.0784 0
M  V30 17 C 1.3971 -1.2935 0.1317 0
M  V30 18 C 0.8171 1.0484 0.0923 0
M  V30 19 C 4.7373 4.7144 1.6272 0
M  V30 20 C 5.0656 3.676 -0.5274 0
M  V30 21 C 0.1365 -1.6098 -0.378 0
M  V30 22 C -0.4454 0.7278 -0.4213 0
M  V30 23 C 5.2328 4.7534 0.3275 0
M  V30 24 C -0.7918 -0.6032 -0.6551 0
M  V30 25 O 5.897 5.8444 -0.1492 0
M  V30 26 O -1.9854 -1.0502 -1.1483 0
M  V30 27 C -2.9731 -0.0655 -1.4652 0
M  V30 28 C -4.233 -0.7645 -2.0134 0
M  V30 29 N -4.233 -0.9838 -3.4759 0
M  V30 30 C -5.5313 -1.4954 -3.9465 0
M  V30 31 C -3.1428 -1.8498 -3.9515 0
M  V30 32 C -5.7966 -2.9594 -3.5828 0
M  V30 33 C -3.3072 -3.3221 -3.5686 0
M  V30 34 C -4.6546 -3.8627 -4.037 0
M  V30 35 H 2.661 -3.1821 4.437 0
M  V30 36 H -1.0115 -0.9996 4.7355 0
M  V30 37 H 3.7985 -1.1755 3.5199 0
M  V30 38 H 0.095 1.0227 3.8185 0
M  V30 39 H 2.5428 2.3788 4.9061 0
M  V30 40 H 3.6921 4.3685 4.0753 0
M  V30 41 H 4.2702 1.7041 -0.765 0
M  V30 42 H 2.1088 -2.0857 0.3456 0
M  V30 43 H 1.0668 2.0935 0.2507 0
M  V30 44 H 4.877 5.5653 2.2878 0
M  V30 45 H 5.457 3.7155 -1.5399 0
M  V30 46 H -0.1242 -2.6492 -0.5604 0
M  V30 47 H -1.1297 1.543 -0.6311 0
M  V30 48 H 5.9507 6.5114 0.5545 0
M  V30 49 H -2.5916 0.6557 -2.1984 0
M  V30 50 H -3.2512 0.4653 -0.546 0
M  V30 51 H -4.3988 -1.6991 -1.4659 0
M  V30 52 H -5.0769 -0.0998 -1.7878 0
M  V30 53 H -5.5663 -1.3901 -5.0389 0
M  V30 54 H -6.3475 -0.8669 -3.5693 0
M  V30 55 H -2.1672 -1.48 -3.6205 0
M  V30 56 H -3.1065 -1.7761 -5.047 0
M  V30 57 H -6.7313 -3.2893 -4.0508 0
M  V30 58 H -5.9367 -3.0606 -2.5001 0
M  V30 59 H -3.2154 -3.4458 -2.4832 0
M  V30 60 H -2.5011 -3.9107 -4.0213 0
M  V30 61 H -4.805 -4.8793 -3.6574 0
M  V30 62 H -4.658 -3.9265 -5.1322 0
M  V30 END ATOM
M  V30 BEGIN BOND
M  V30 1 1 1 2
M  V30 2 2 2 3
M  V30 3 1 2 4
M  V30 4 1 3 5
M  V30 5 2 4 6
M  V30 6 2 5 7
M  V30 7 1 7 8
M  V30 8 2 8 9
M  V30 9 1 8 10
M  V30 10 1 9 11
M  V30 11 1 9 12
M  V30 12 2 10 13
M  V30 13 1 11 14
M  V30 14 1 12 15
M  V30 15 2 12 16
M  V30 16 2 14 17
M  V30 17 1 14 18
M  V30 18 2 15 19
M  V30 19 1 16 20
M  V30 20 1 17 21
M  V30 21 2 18 22
M  V30 22 1 19 23
M  V30 23 2 21 24
M  V30 24 1 23 25
M  V30 25 1 24 26
M  V30 26 1 26 27
M  V30 27 1 27 28
M  V30 28 1 28 29
M  V30 29 1 29 30
M  V30 30 1 29 31
M  V30 31 1 30 32
M  V30 32 1 31 33
M  V30 33 1 32 34
M  V30 34 1 6 7
M  V30 35 1 13 15
M  V30 36 2 20 23
M  V30 37 1 22 24
M  V30 38 1 33 34
M  V30 39 1 3 35
M  V30 40 1 4 36
M  V30 41 1 5 37
M  V30 42 1 6 38
M  V30 43 1 10 39
M  V30 44 1 13 40
M  V30 45 1 16 41
M  V30 46 1 17 42
M  V30 47 1 18 43
M  V30 48 1 19 44
M  V30 49 1 20 45
M  V30 50 1 21 46
M  V30 51 1 22 47
M  V30 52 1 25 48
M  V30 53 1 27 49
M  V30 54 1 27 50
M  V30 55 1 28 51
M  V30 56 1 28 52
M  V30 57 1 30 53
M  V30 58 1 30 54
M  V30 59 1 31 55
M  V30 60 1 31 56
M  V30 61 1 32 57
M  V30 62 1 32 58
M  V30 63 1 33 59
M  V30 64 1 33 60
M  V30 65 1 34 61
M  V30 66 1 34 62
M  V30 END BOND
M  V30 END CTAB
M  END
>  <level_0>
1030

>  <index>
1030

>  <NO.>
1031

>  <Name>
chembl244205

>  <SMILES>
Oc1ccc2c(Oc3ccc(OCCN4CCCCC4)cc3)c(-c3ccc(F)cc3)ccc2c1

>  <logBB>
1.25

>  <Class>
1

>  <MW>
457.21

>  <nHBAcc>
4

>  <nHBDon>
1

>  <SLogP>
7.01

>  <TopoPSA>
41.93

>  <MMFF94 Energy>
99.033

$$$$
COc1cc2sc(-c3ccccc3)nc2cc1CNC1CCCNC1c1ccccc1
Actelion Java MolfileCreator 2.0

  0  0  0  0  0  0              0 V3000
M  V30 BEGIN CTAB
M  V30 COUNTS 58 62 0 0 0
M  V30 BEGIN ATOM
M  V30 1 S -1.2913 2.5838 4.1204 0
M  V30 2 C -1.4839 3.8341 2.9499 0
M  V30 3 C -1.2899 1.3948 2.8812 0
M  V30 4 N -1.5485 3.4057 1.703 0
M  V30 5 C -1.5688 5.262 3.3292 0
M  V30 6 C -1.4423 2.0276 1.6504 0
M  V30 7 C -1.1651 0.0021 2.989 0
M  V30 8 C -1.5008 5.7219 4.6553 0
M  V30 9 C -1.7263 6.2226 2.3134 0
M  V30 10 C -1.4802 1.2414 0.4806 0
M  V30 11 C -1.1821 -0.752 1.8095 0
M  V30 12 C -1.5871 7.0874 4.9513 0
M  V30 13 C -1.8126 7.5865 2.6075 0
M  V30 14 C -1.3643 -0.1597 0.5555 0
M  V30 15 O -1.0891 -2.1174 1.9133 0
M  V30 16 C -1.7428 8.0181 3.928 0
M  V30 17 C -1.3976 -0.9729 -0.7168 0
M  V30 18 C 0.2805 -2.5074 2.0435 0
M  V30 19 N -0.0669 -1.0419 -1.3138 0
M  V30 20 C -0.009 -1.878 -2.5254 0
M  V30 21 C 1.4683 -2.3297 -2.8335 0
M  V30 22 C -0.58 -1.1124 -3.734 0
M  V30 23 N 1.5874 -3.0604 -4.1119 0
M  V30 24 C 2.0843 -3.1778 -1.7225 0
M  V30 25 C -0.3997 -1.9086 -5.0225 0
M  V30 26 C 1.0608 -2.2887 -5.232 0
M  V30 27 C 3.3227 -2.8106 -1.1707 0
M  V30 28 C 1.4637 -4.3455 -1.2471 0
M  V30 29 C 3.9138 -3.577 -0.1638 0
M  V30 30 C 2.0578 -5.1128 -0.2423 0
M  V30 31 C 3.2808 -4.7271 0.3008 0
M  V30 32 H -1.06 -0.4783 3.9558 0
M  V30 33 H -1.3799 5.0338 5.4877 0
M  V30 34 H -1.7836 5.9074 1.2723 0
M  V30 35 H -1.604 1.7394 -0.4763 0
M  V30 36 H -1.5323 7.4217 5.9845 0
M  V30 37 H -1.9343 8.3071 1.803 0
M  V30 38 H -1.8097 9.0779 4.1596 0
M  V30 39 H -2.1165 -0.5127 -1.405 0
M  V30 40 H -1.7788 -1.9784 -0.5027 0
M  V30 41 H 0.9041 -2.0799 1.2519 0
M  V30 42 H 0.3246 -3.5971 1.9642 0
M  V30 43 H 0.6718 -2.2246 3.0266 0
M  V30 44 H 0.2804 -0.1046 -1.5058 0
M  V30 45 H -0.6173 -2.7793 -2.3721 0
M  V30 46 H 2.0746 -1.4167 -2.9268 0
M  V30 47 H -1.6465 -0.9032 -3.5946 0
M  V30 48 H -0.0755 -0.1429 -3.8397 0
M  V30 49 H 1.0809 -3.9405 -4.0315 0
M  V30 50 H -0.7512 -1.3141 -5.8734 0
M  V30 51 H -1.0196 -2.8132 -4.9864 0
M  V30 52 H 1.1536 -2.8853 -6.146 0
M  V30 53 H 1.6706 -1.3899 -5.3838 0
M  V30 54 H 3.8375 -1.9217 -1.5276 0
M  V30 55 H 0.5117 -4.671 -1.6569 0
M  V30 56 H 4.8721 -3.2775 0.2515 0
M  V30 57 H 1.5648 -6.0131 0.1143 0
M  V30 58 H 3.7436 -5.3256 1.0803 0
M  V30 END ATOM
M  V30 BEGIN BOND
M  V30 1 1 1 2
M  V30 2 1 1 3
M  V30 3 2 2 4
M  V30 4 1 2 5
M  V30 5 2 3 6
M  V30 6 1 3 7
M  V30 7 2 5 8
M  V30 8 1 5 9
M  V30 9 1 6 10
M  V30 10 2 7 11
M  V30 11 1 8 12
M  V30 12 2 9 13
M  V30 13 2 10 14
M  V30 14 1 11 15
M  V30 15 2 12 16
M  V30 16 1 14 17
M  V30 17 1 15 18
M  V30 18 1 17 19
M  V30 19 1 19 20
M  V30 20 1 20 21
M  V30 21 1 20 22
M  V30 22 1 21 23
M  V30 23 1 21 24
M  V30 24 1 22 25
M  V30 25 1 23 26
M  V30 26 2 24 27
M  V30 27 1 24 28
M  V30 28 1 27 29
M  V30 29 2 28 30
M  V30 30 2 29 31
M  V30 31 1 4 6
M  V30 32 1 11 14
M  V30 33 1 13 16
M  V30 34 1 25 26
M  V30 35 1 30 31
M  V30 36 1 7 32
M  V30 37 1 8 33
M  V30 38 1 9 34
M  V30 39 1 10 35
M  V30 40 1 12 36
M  V30 41 1 13 37
M  V30 42 1 16 38
M  V30 43 1 17 39
M  V30 44 1 17 40
M  V30 45 1 18 41
M  V30 46 1 18 42
M  V30 47 1 18 43
M  V30 48 1 19 44
M  V30 49 1 20 45
M  V30 50 1 21 46
M  V30 51 1 22 47
M  V30 52 1 22 48
M  V30 53 1 23 49
M  V30 54 1 25 50
M  V30 55 1 25 51
M  V30 56 1 26 52
M  V30 57 1 26 53
M  V30 58 1 27 54
M  V30 59 1 28 55
M  V30 60 1 29 56
M  V30 61 1 30 57
M  V30 62 1 31 58
M  V30 END BOND
M  V30 END CTAB
M  END
>  <level_0>
1031

>  <index>
1031

>  <NO.>
1032

>  <Name>
pfizer compound 23

>  <SMILES>
COc1cc2sc(-c3ccccc3)nc2cc1CNC1CCCNC1c1ccccc1

>  <logBB>
1.26

>  <Class>
1

>  <MW>
429.19

>  <nHBAcc>
5

>  <nHBDon>
2

>  <SLogP>
5.55

>  <TopoPSA>
46.18

>  <MMFF94 Energy>
100.31

$$$$
CC1CCN(CCCN2c3ccccc3Sc3ccc(C(F)(F)F)cc32)CC1
Actelion Java MolfileCreator 2.0

  0  0  0  0  0  0              0 V3000
M  V30 BEGIN CTAB
M  V30 COUNTS 53 56 0 0 0
M  V30 BEGIN ATOM
M  V30 1 S 1.3821 1.8702 -4.966 0
M  V30 2 C 1.2376 2.5984 -3.353 0
M  V30 3 C 1.1682 0.1401 -4.6251 0
M  V30 4 C 1.1685 1.8517 -2.1605 0
M  V30 5 C 1.208 4.0068 -3.3312 0
M  V30 6 C 1.1039 -0.3986 -3.3239 0
M  V30 7 C 1.0786 -0.689 -5.7618 0
M  V30 8 N 1.2046 0.427 -2.1649 0
M  V30 9 C 1.0447 2.5991 -0.9652 0
M  V30 10 C 1.0971 4.7077 -2.135 0
M  V30 11 C 0.9199 -1.7984 -3.2412 0
M  V30 12 C 0.9093 -2.0624 -5.6379 0
M  V30 13 C 1.4583 -0.2527 -0.8729 0
M  V30 14 C 1.0174 4.0083 -0.9341 0
M  V30 15 C 0.8257 -2.6176 -4.3733 0
M  V30 16 C 0.1534 -0.5929 -0.1373 0
M  V30 17 C 0.861 4.7363 0.3776 0
M  V30 18 C 0.4594 -1.2132 1.2317 0
M  V30 19 F -0.4423 4.8551 0.7517 0
M  V30 20 F 1.4887 4.1063 1.4105 0
M  V30 21 F 1.3629 6.0021 0.3558 0
M  V30 22 N -0.7395 -1.7185 1.9231 0
M  V30 23 C -1.6431 -0.6333 2.3389 0
M  V30 24 C -0.3407 -2.5368 3.0815 0
M  V30 25 C -2.8978 -1.1776 3.0293 0
M  V30 26 C -1.5534 -3.1443 3.7898 0
M  V30 27 C -2.5762 -2.0876 4.2189 0
M  V30 28 C -2.0952 -1.2885 5.4325 0
M  V30 29 H 1.2673 4.5693 -4.2619 0
M  V30 30 H 1.1376 -0.2588 -6.7598 0
M  V30 31 H 0.9488 2.1004 -0.0044 0
M  V30 32 H 1.0698 5.7958 -2.1498 0
M  V30 33 H 0.8254 -2.3059 -2.2869 0
M  V30 34 H 0.8374 -2.6887 -6.5223 0
M  V30 35 H 2.1088 0.3572 -0.2325 0
M  V30 36 H 2.0635 -1.1575 -1.0147 0
M  V30 37 H 0.6819 -3.6887 -4.256 0
M  V30 38 H -0.4501 -1.2887 -0.7306 0
M  V30 39 H -0.4524 0.3107 -0.0209 0
M  V30 40 H 1.1462 -2.0528 1.0626 0
M  V30 41 H 0.9926 -0.4882 1.8607 0
M  V30 42 H -1.9838 -0.0659 1.4665 0
M  V30 43 H -1.126 0.0737 2.9994 0
M  V30 44 H 0.2945 -3.3653 2.7444 0
M  V30 45 H 0.254 -1.9466 3.7901 0
M  V30 46 H -3.5332 -0.3431 3.3492 0
M  V30 47 H -3.4827 -1.7492 2.2962 0
M  V30 48 H -2.0421 -3.8532 3.1082 0
M  V30 49 H -1.2206 -3.727 4.657 0
M  V30 50 H -3.4982 -2.6021 4.5186 0
M  V30 51 H -1.9041 -1.9553 6.2801 0
M  V30 52 H -2.8584 -0.5672 5.744 0
M  V30 53 H -1.1748 -0.7333 5.2302 0
M  V30 END ATOM
M  V30 BEGIN BOND
M  V30 1 1 1 2
M  V30 2 1 1 3
M  V30 3 2 2 4
M  V30 4 1 2 5
M  V30 5 2 3 6
M  V30 6 1 3 7
M  V30 7 1 4 8
M  V30 8 1 4 9
M  V30 9 2 5 10
M  V30 10 1 6 11
M  V30 11 2 7 12
M  V30 12 1 8 13
M  V30 13 2 9 14
M  V30 14 2 11 15
M  V30 15 1 13 16
M  V30 16 1 14 17
M  V30 17 1 16 18
M  V30 18 1 17 19
M  V30 19 1 17 20
M  V30 20 1 17 21
M  V30 21 1 18 22
M  V30 22 1 22 23
M  V30 23 1 22 24
M  V30 24 1 23 25
M  V30 25 1 24 26
M  V30 26 1 25 27
M  V30 27 1 27 28
M  V30 28 1 6 8
M  V30 29 1 10 14
M  V30 30 1 12 15
M  V30 31 1 26 27
M  V30 32 1 5 29
M  V30 33 1 7 30
M  V30 34 1 9 31
M  V30 35 1 10 32
M  V30 36 1 11 33
M  V30 37 1 12 34
M  V30 38 1 13 35
M  V30 39 1 13 36
M  V30 40 1 15 37
M  V30 41 1 16 38
M  V30 42 1 16 39
M  V30 43 1 18 40
M  V30 44 1 18 41
M  V30 45 1 23 42
M  V30 46 1 23 43
M  V30 47 1 24 44
M  V30 48 1 24 45
M  V30 49 1 25 46
M  V30 50 1 25 47
M  V30 51 1 26 48
M  V30 52 1 26 49
M  V30 53 1 27 50
M  V30 54 1 28 51
M  V30 55 1 28 52
M  V30 56 1 28 53
M  V30 END BOND
M  V30 END CTAB
M  END
>  <level_0>
1048

>  <index>
1048

>  <NO.>
1049

>  <Name>
chembl4248308

>  <SMILES>
CC1CCN(CCCN2c3ccccc3Sc3ccc(C(F)(F)F)cc32)CC1

>  <logBB>
1.44

>  <Class>
1

>  <MW>
406.17

>  <nHBAcc>
3

>  <nHBDon>
0

>  <SLogP>
6.43

>  <TopoPSA>
6.48

>  <MMFF94 Energy>
92.543

$$$$
CN(C)CCCN1c2ccccc2Sc2ccc(C(F)(F)F)cc21
Actelion Java MolfileCreator 2.0

  0  0  0  0  0  0              0 V3000
M  V30 BEGIN CTAB
M  V30 COUNTS 43 45 0 0 0
M  V30 BEGIN ATOM
M  V30 1 S 2.197 -1.7085 -2.1156 0
M  V30 2 C 2.2118 0.0145 -1.6676 0
M  V30 3 C 1.8996 -2.4952 -0.5453 0
M  V30 4 C 1.7493 0.4877 -0.4254 0
M  V30 5 C 2.7019 0.9094 -2.6338 0
M  V30 6 C 1.4635 -1.7912 0.5943 0
M  V30 7 C 2.1016 -3.8856 -0.4917 0
M  V30 8 N 1.2267 -0.3898 0.5608 0
M  V30 9 C 1.8624 1.8714 -0.1767 0
M  V30 10 C 2.7703 2.2767 -2.3747 0
M  V30 11 C 1.3026 -2.5274 1.7859 0
M  V30 12 C 1.9058 -4.5906 0.6924 0
M  V30 13 C -0.0099 0.0662 1.2443 0
M  V30 14 C 2.3531 2.7733 -1.1388 0
M  V30 15 C 1.5146 -3.9086 1.8354 0
M  V30 16 C -1.2543 -0.2213 0.3903 0
M  V30 17 C 2.4659 4.2419 -0.8152 0
M  V30 18 C -2.514 0.3274 1.0719 0
M  V30 19 F 1.4534 4.6869 -0.0185 0
M  V30 20 F 3.6186 4.542 -0.1572 0
M  V30 21 F 2.4446 5.0393 -1.9193 0
M  V30 22 N -3.7607 -0.0504 0.3857 0
M  V30 23 C -3.8714 0.5567 -0.9422 0
M  V30 24 C -4.9184 0.3306 1.1998 0
M  V30 25 H 3.0451 0.5392 -3.5983 0
M  V30 26 H 2.4216 -4.4278 -1.3788 0
M  V30 27 H 1.5991 2.2713 0.8004 0
M  V30 28 H 3.1634 2.9468 -3.1376 0
M  V30 29 H 1.0395 -2.0316 2.7153 0
M  V30 30 H 2.0709 -5.664 0.7226 0
M  V30 31 H 0.0234 1.1358 1.4751 0
M  V30 32 H -0.1272 -0.4018 2.2271 0
M  V30 33 H 1.3805 -4.4448 2.7713 0
M  V30 34 H -1.3586 -1.3021 0.235 0
M  V30 35 H -1.1276 0.235 -0.5975 0
M  V30 36 H -2.541 -0.0784 2.0917 0
M  V30 37 H -2.4399 1.4188 1.1662 0
M  V30 38 H -3.0955 0.182 -1.6165 0
M  V30 39 H -3.8037 1.6498 -0.9032 0
M  V30 40 H -4.8269 0.29 -1.4087 0
M  V30 41 H -4.9711 1.4134 1.3615 0
M  V30 42 H -4.8827 -0.1635 2.1771 0
M  V30 43 H -5.8499 0.0064 0.7223 0
M  V30 END ATOM
M  V30 BEGIN BOND
M  V30 1 1 1 2
M  V30 2 1 1 3
M  V30 3 2 2 4
M  V30 4 1 2 5
M  V30 5 2 3 6
M  V30 6 1 3 7
M  V30 7 1 4 8
M  V30 8 1 4 9
M  V30 9 2 5 10
M  V30 10 1 6 11
M  V30 11 2 7 12
M  V30 12 1 8 13
M  V30 13 2 9 14
M  V30 14 2 11 15
M  V30 15 1 13 16
M  V30 16 1 14 17
M  V30 17 1 16 18
M  V30 18 1 17 19
M  V30 19 1 17 20
M  V30 20 1 17 21
M  V30 21 1 18 22
M  V30 22 1 22 23
M  V30 23 1 22 24
M  V30 24 1 6 8
M  V30 25 1 10 14
M  V30 26 1 12 15
M  V30 27 1 5 25
M  V30 28 1 7 26
M  V30 29 1 9 27
M  V30 30 1 10 28
M  V30 31 1 11 29
M  V30 32 1 12 30
M  V30 33 1 13 31
M  V30 34 1 13 32
M  V30 35 1 15 33
M  V30 36 1 16 34
M  V30 37 1 16 35
M  V30 38 1 18 36
M  V30 39 1 18 37
M  V30 40 1 23 38
M  V30 41 1 23 39
M  V30 42 1 23 40
M  V30 43 1 24 41
M  V30 44 1 24 42
M  V30 45 1 24 43
M  V30 END BOND
M  V30 END CTAB
M  END
>  <level_0>
1049

>  <index>
1049

>  <NO.>
1050

>  <Name>
trifluopromazine

>  <SMILES>
CN(C)CCCN1c2ccccc2Sc2ccc(C(F)(F)F)cc21

>  <logBB>
1.44

>  <Class>
1

>  <MW>
352.12

>  <nHBAcc>
3

>  <nHBDon>
0

>  <SLogP>
5.26

>  <TopoPSA>
6.48

>  <MMFF94 Energy>
95.19

$$$$
CN[C@H]1CC[C@@H](c2ccc(Cl)c(Cl)c2)c2ccccc21
Actelion Java MolfileCreator 2.0

  0  0  0  0  0  0              0 V3000
M  V30 BEGIN CTAB
M  V30 COUNTS 37 39 0 0 0
M  V30 BEGIN ATOM
M  V30 1 Cl 0.4077 -1.4684 4.0828 0
M  V30 2 C 0.6494 0.0584 3.3102 0
M  V30 3 C 0.9761 1.2154 4.0223 0
M  V30 4 C 0.5012 0.114 1.9193 0
M  V30 5 Cl 1.1738 1.2256 5.7385 0
M  V30 6 C 1.1506 2.4215 3.3404 0
M  V30 7 C 0.6773 1.3203 1.2194 0
M  V30 8 C 0.9999 2.474 1.9521 0
M  V30 9 C 0.5007 1.4236 -0.2959 0 CFG=1
M  V30 10 C 0.9314 0.1799 -1.0605 0
M  V30 11 C -0.9286 1.8621 -0.6644 0
M  V30 12 C -0.0054 -0.6867 -1.6631 0
M  V30 13 C 2.3059 -0.1114 -1.1562 0
M  V30 14 C -1.9036 0.6905 -0.6153 0
M  V30 15 C 0.4721 -1.7969 -2.3855 0
M  V30 16 C -1.5013 -0.3949 -1.6294 0 CFG=2
M  V30 17 C 2.7536 -1.2312 -1.8537 0
M  V30 18 C 1.8365 -2.0717 -2.4727 0
M  V30 19 N -2.3533 -1.5928 -1.5165 0
M  V30 20 C -2.2189 -2.3285 -0.2656 0
M  V30 21 H 0.2477 -0.7973 1.3812 0
M  V30 22 H 1.4028 3.3284 3.8851 0
M  V30 23 H 1.1364 3.4276 1.4442 0
M  V30 24 H 1.1643 2.2317 -0.6394 0
M  V30 25 H -0.9295 2.2762 -1.6817 0
M  V30 26 H -1.2776 2.6635 -0.002 0
M  V30 27 H 3.0374 0.5404 -0.6825 0
M  V30 28 H -1.9361 0.3016 0.4071 0
M  V30 29 H -2.916 1.0475 -0.842 0
M  V30 30 H -0.232 -2.4615 -2.8839 0
M  V30 31 H -1.7154 0.0234 -2.6236 0
M  V30 32 H 3.8172 -1.4437 -1.9182 0
M  V30 33 H 2.1794 -2.9416 -3.0261 0
M  V30 34 H -3.3273 -1.3169 -1.6326 0
M  V30 35 H -2.8058 -3.2503 -0.3344 0
M  V30 36 H -1.1858 -2.6238 -0.0619 0
M  V30 37 H -2.6054 -1.7659 0.5887 0
M  V30 END ATOM
M  V30 BEGIN BOND
M  V30 1 1 1 2
M  V30 2 2 2 3
M  V30 3 1 2 4
M  V30 4 1 3 5
M  V30 5 1 3 6
M  V30 6 2 4 7
M  V30 7 2 6 8
M  V30 8 1 7 9
M  V30 9 1 9 10
M  V30 10 1 9 11
M  V30 11 2 10 12
M  V30 12 1 10 13
M  V30 13 1 11 14
M  V30 14 1 12 15
M  V30 15 1 12 16
M  V30 16 2 13 17
M  V30 17 2 15 18
M  V30 18 1 16 19
M  V30 19 1 19 20
M  V30 20 1 7 8
M  V30 21 1 14 16
M  V30 22 1 17 18
M  V30 23 1 4 21
M  V30 24 1 6 22
M  V30 25 1 8 23
M  V30 26 1 9 24
M  V30 27 1 11 25
M  V30 28 1 11 26
M  V30 29 1 13 27
M  V30 30 1 14 28
M  V30 31 1 14 29
M  V30 32 1 15 30
M  V30 33 1 16 31
M  V30 34 1 17 32
M  V30 35 1 18 33
M  V30 36 1 19 34
M  V30 37 1 20 35
M  V30 38 1 20 36
M  V30 39 1 20 37
M  V30 END BOND
M  V30 BEGIN COLLECTION
M  V30 MDLV30/STEABS ATOMS=(2 9 16)
M  V30 END COLLECTION
M  V30 END CTAB
M  END
>  <level_0>
1054

>  <index>
1054

>  <NO.>
1055

>  <Name>
sertraline

>  <SMILES>
CN[C@H]1CC[C@@H](c2ccc(Cl)c(Cl)c2)c2ccccc21

>  <logBB>
1.6

>  <Class>
1

>  <MW>
305.07

>  <nHBAcc>
1

>  <nHBDon>
1

>  <SLogP>
5.18

>  <TopoPSA>
12.03

>  <MMFF94 Energy>
61.683

$$$$
C#C[C@]1(O)CC[C@H]2C3CCC4=Cc5c(cnn5-c5ccc(F)cc5)CC4(C)[C@H]3CCC21C
Actelion Java MolfileCreator 2.0

  0  0  0  0  0  0              0 V3000
M  V30 BEGIN CTAB
M  V30 COUNTS 63 68 0 0 0
M  V30 BEGIN ATOM
M  V30 1 F 2.7512 8.7592 -0.1616 0
M  V30 2 C 2.1847 7.6584 0.3496 0
M  V30 3 C 1.2406 6.9644 -0.4019 0
M  V30 4 C 2.5437 7.2338 1.625 0
M  V30 5 C 0.6456 5.8169 0.1248 0
M  V30 6 C 1.9542 6.0883 2.1604 0
M  V30 7 C 1.0171 5.3729 1.4013 0
M  V30 8 N 0.4184 4.2198 1.9614 0
M  V30 9 N -0.0502 4.259 3.2419 0
M  V30 10 C 0.2003 2.9811 1.3909 0
M  V30 11 C -0.622 3.0662 3.4292 0
M  V30 12 C -0.4968 2.2361 2.3091 0
M  V30 13 C 0.6166 2.5481 0.1164 0
M  V30 14 C -0.8922 0.8346 2.041 0
M  V30 15 C 0.1132 1.3757 -0.3302 0
M  V30 16 C -0.8728 0.4852 0.4935 0
M  V30 17 C 0.4489 0.9068 -1.7253 0
M  V30 18 C -0.464 -1.031 0.3464 0 CFG=2
M  V30 19 C -2.2903 0.7588 -0.0668 0
M  V30 20 C 0.875 -0.5537 -1.7543 0
M  V30 21 C -0.1962 -1.4571 -1.13 0
M  V30 22 C -1.4367 -2.0097 1.0617 0
M  V30 23 C 0.239 -2.9286 -1.1538 0 CFG=1
M  V30 24 C -1.0284 -3.4873 0.9213 0
M  V30 25 C -0.8146 -3.8827 -0.5509 0
M  V30 26 C 0.5731 -3.5699 -2.4991 0
M  V30 27 C -0.1412 -5.2607 -0.8267 0 CFG=2
M  V30 28 C -2.1908 -3.8277 -1.2789 0
M  V30 29 C 0.4313 -5.0869 -2.2583 0
M  V30 30 O -1.0886 -6.319 -0.8052 0
M  V30 31 C 0.9445 -5.6031 0.1178 0
M  V30 32 C 1.8259 -5.8973 0.8795 0
M  V30 33 H 0.968 7.3289 -1.3873 0
M  V30 34 H 3.2733 7.7996 2.1954 0
M  V30 35 H -0.1141 5.2983 -0.4545 0
M  V30 36 H 2.2239 5.7598 3.1624 0
M  V30 37 H -1.0883 2.8538 4.3828 0
M  V30 38 H 1.2931 3.1435 -0.4885 0
M  V30 39 H -1.8783 0.6311 2.4755 0
M  V30 40 H -0.1751 0.198 2.5762 0
M  V30 41 H 1.25 1.514 -2.1644 0
M  V30 42 H -0.4288 1.0455 -2.3682 0
M  V30 43 H 0.501 -1.139 0.8678 0
M  V30 44 H -3.0637 0.2396 0.5082 0
M  V30 45 H -2.5315 1.828 -0.0254 0
M  V30 46 H -2.3932 0.4443 -1.1099 0
M  V30 47 H 1.8279 -0.6725 -1.2225 0
M  V30 48 H 1.0545 -0.8442 -2.7958 0
M  V30 49 H -1.112 -1.3413 -1.7198 0
M  V30 50 H -1.4825 -1.7783 2.1318 0
M  V30 51 H -2.4547 -1.8826 0.682 0
M  V30 52 H 1.1575 -2.9886 -0.5482 0
M  V30 53 H -0.11 -3.63 1.5023 0
M  V30 54 H -1.7903 -4.126 1.3841 0
M  V30 55 H -0.1202 -3.2441 -3.2825 0
M  V30 56 H 1.5859 -3.3161 -2.8286 0
M  V30 57 H -2.912 -4.4916 -0.788 0
M  V30 58 H -2.1251 -4.1418 -2.3252 0
M  V30 59 H -2.6343 -2.8289 -1.2815 0
M  V30 60 H 1.4008 -5.5845 -2.3804 0
M  V30 61 H -0.2366 -5.52 -3.0128 0
M  V30 62 H -0.5932 -7.1446 -0.9401 0
M  V30 63 H 2.604 -6.1568 1.5599 0
M  V30 END ATOM
M  V30 BEGIN BOND
M  V30 1 1 1 2
M  V30 2 2 2 3
M  V30 3 1 2 4
M  V30 4 1 3 5
M  V30 5 2 4 6
M  V30 6 2 5 7
M  V30 7 1 7 8
M  V30 8 1 8 9
M  V30 9 1 8 10
M  V30 10 2 9 11
M  V30 11 2 10 12
M  V30 12 1 10 13
M  V30 13 1 12 14
M  V30 14 2 13 15
M  V30 15 1 14 16
M  V30 16 1 15 17
M  V30 17 1 16 18
M  V30 18 1 16 19
M  V30 19 1 17 20
M  V30 20 1 18 21
M  V30 21 1 18 22
M  V30 22 1 21 23
M  V30 23 1 22 24
M  V30 24 1 23 25
M  V30 25 1 23 26
M  V30 26 1 25 27
M  V30 27 1 25 28
M  V30 28 1 26 29
M  V30 29 1 27 30
M  V30 30 1 27 31
M  V30 31 3 31 32
M  V30 32 1 6 7
M  V30 33 1 11 12
M  V30 34 1 15 16
M  V30 35 1 20 21
M  V30 36 1 24 25
M  V30 37 1 27 29
M  V30 38 1 3 33
M  V30 39 1 4 34
M  V30 40 1 5 35
M  V30 41 1 6 36
M  V30 42 1 11 37
M  V30 43 1 13 38
M  V30 44 1 14 39
M  V30 45 1 14 40
M  V30 46 1 17 41
M  V30 47 1 17 42
M  V30 48 1 18 43
M  V30 49 1 19 44
M  V30 50 1 19 45
M  V30 51 1 19 46
M  V30 52 1 20 47
M  V30 53 1 20 48
M  V30 54 1 21 49
M  V30 55 1 22 50
M  V30 56 1 22 51
M  V30 57 1 23 52
M  V30 58 1 24 53
M  V30 59 1 24 54
M  V30 60 1 26 55
M  V30 61 1 26 56
M  V30 62 1 28 57
M  V30 63 1 28 58
M  V30 64 1 28 59
M  V30 65 1 29 60
M  V30 66 1 29 61
M  V30 67 1 30 62
M  V30 68 1 32 63
M  V30 END BOND
M  V30 BEGIN COLLECTION
M  V30 MDLV30/STEABS ATOMS=(3 18 23 27)
M  V30 END COLLECTION
M  V30 END CTAB
M  END
>  <level_0>
1068

>  <index>
1068

>  <NO.>
1069

>  <Name>
nivazol(nivacortol)

>  <SMILES>
C#C[C@]1(O)CC[C@H]2C3CCC4=Cc5c(cnn5-c5ccc(F)cc5)CC4(C)[C@H]3CCC21C

>  <logBB>


>  <Class>
1

>  <MW>
430.24

>  <nHBAcc>
2

>  <nHBDon>
1

>  <SLogP>
5.56

>  <TopoPSA>
38.05

>  <MMFF94 Energy>
131.69

$$$$
C/C(=C(/CCOC(=O)c1ccccc1)SS/C(CCOC(=O)c1ccccc1)=C(\C)N(C=O)Cc1cnc(C)nc1N)N(C=O)Cc1cnc(C)nc1N
Actelion Java MolfileCreator 2.0

  0  0  0  0  0  0              0 V3000
M  V30 BEGIN CTAB
M  V30 COUNTS 96 99 0 0 0
M  V30 BEGIN ATOM
M  V30 1 S -2.8854 -0.8008 0.2402 0
M  V30 2 S -2.322 0.5945 -1.1616 0
M  V30 3 C -1.4955 -0.7876 1.3244 0
M  V30 4 C -1.4062 -0.4289 -2.2724 0
M  V30 5 C -0.7845 -1.9296 1.5279 0
M  V30 6 C -1.3361 0.4531 2.1944 0
M  V30 7 C -2.0366 -1.2048 -3.1952 0
M  V30 8 C 0.0925 -0.4331 -2.0113 0
M  V30 9 N 0.2606 -1.9801 2.454 0
M  V30 10 C -0.9965 -3.2262 0.7746 0
M  V30 11 C -0.3157 1.4864 1.7121 0
M  V30 12 N -1.3484 -2.0302 -4.096 0
M  V30 13 C -3.5495 -1.2624 -3.3527 0
M  V30 14 C 0.7886 0.8921 -2.3271 0
M  V30 15 C 1.5235 -1.5028 2.1082 0
M  V30 16 C 0.1223 -2.8 3.6628 0
M  V30 17 O -0.078 2.457 2.7517 0
M  V30 18 C -1.7 -3.3703 -4.2441 0
M  V30 19 C -0.4124 -1.4689 -5.0813 0
M  V30 20 O 2.1851 0.7294 -2.0454 0
M  V30 21 O 1.8649 -1.0806 1.009 0
M  V30 22 C -0.4594 -2.0546 4.8241 0
M  V30 23 C 0.7991 2.0836 3.7184 0
M  V30 24 O -1.2616 -4.1423 -5.0902 0
M  V30 25 C -1.1074 -0.9505 -6.3071 0
M  V30 26 C 2.9303 1.8462 -2.2249 0
M  V30 27 C -1.8007 -2.0626 5.157 0
M  V30 28 C 0.3417 -1.2883 5.6498 0
M  V30 29 O 1.4127 1.0284 3.7659 0
M  V30 30 C 0.8735 3.1273 4.7734 0
M  V30 31 C -1.2889 -1.6834 -7.465 0
M  V30 32 C -1.6331 0.3277 -6.3326 0
M  V30 33 O 2.5284 2.9062 -2.6778 0
M  V30 34 C 4.3357 1.5999 -1.8095 0
M  V30 35 N -2.2875 -1.412 6.2243 0
M  V30 36 N -2.7397 -2.7796 4.4401 0
M  V30 37 N -0.1052 -0.6065 6.7198 0
M  V30 38 C 1.3928 2.7708 6.0249 0
M  V30 39 C 0.4466 4.4436 4.5519 0
M  V30 40 N -1.8938 -1.1795 -8.5519 0
M  V30 41 N -0.8047 -2.968 -7.6075 0
M  V30 42 N -2.2665 0.8637 -7.3902 0
M  V30 43 C 5.3148 2.5232 -2.1999 0
M  V30 44 C 4.7005 0.493 -1.0307 0
M  V30 45 C -1.4219 -0.693 6.9609 0
M  V30 46 C 1.4793 3.7192 7.0457 0
M  V30 47 C 0.537 5.39 5.5754 0
M  V30 48 C -2.3572 0.0805 -8.4765 0
M  V30 49 C 6.6469 2.3341 -1.8267 0
M  V30 50 C 6.034 0.3086 -0.6588 0
M  V30 51 C -1.9576 0.0283 8.1571 0
M  V30 52 C 1.052 5.0273 6.82 0
M  V30 53 C -3.0663 0.6305 -9.6735 0
M  V30 54 C 7.0051 1.2267 -1.0584 0
M  V30 55 H -2.3045 0.9569 2.3228 0
M  V30 56 H -1.088 0.1535 3.2171 0
M  V30 57 H 0.2762 -0.676 -0.9602 0
M  V30 58 H 0.5996 -1.247 -2.5417 0
M  V30 59 H -1.7508 -3.8394 1.278 0
M  V30 60 H -0.0671 -3.8056 0.7259 0
M  V30 61 H -1.3042 -3.0664 -0.2626 0
M  V30 62 H 0.6303 1.0477 1.388 0
M  V30 63 H -0.7098 2.0455 0.8591 0
M  V30 64 H -3.9748 -2.0335 -2.7025 0
M  V30 65 H -3.8245 -1.5009 -4.3871 0
M  V30 66 H -4.0363 -0.3074 -3.1351 0
M  V30 67 H 0.6578 1.1599 -3.3813 0
M  V30 68 H 0.3929 1.6993 -1.7 0
M  V30 69 H 2.2384 -1.5524 2.9465 0
M  V30 70 H -0.468 -3.6953 3.4343 0
M  V30 71 H 1.1119 -3.1811 3.9485 0
M  V30 72 H -2.4277 -3.7093 -3.4875 0
M  V30 73 H 0.1698 -0.6566 -4.6418 0
M  V30 74 H 0.3259 -2.2335 -5.3512 0
M  V30 75 H 1.4093 -1.189 5.4699 0
M  V30 76 H -1.5575 0.9878 -5.4723 0
M  V30 77 H -2.7058 -2.7232 3.4327 0
M  V30 78 H -3.6633 -2.7028 4.8529 0
M  V30 79 H 1.7214 1.7507 6.2137 0
M  V30 80 H 0.0475 4.7458 3.5868 0
M  V30 81 H -0.897 -3.6003 -6.8115 0
M  V30 82 H -1.0026 -3.3687 -8.5151 0
M  V30 83 H 5.0424 3.392 -2.7962 0
M  V30 84 H 3.9545 -0.2256 -0.6961 0
M  V30 85 H 1.8786 3.4356 8.0164 0
M  V30 86 H 0.2065 6.4112 5.4011 0
M  V30 87 H 7.4036 3.0519 -2.1335 0
M  V30 88 H 6.3125 -0.5498 -0.0527 0
M  V30 89 H -3.0088 0.2942 8.0092 0
M  V30 90 H -1.3935 0.9493 8.3345 0
M  V30 91 H -1.8764 -0.6116 9.0404 0
M  V30 92 H 1.1208 5.7657 7.6154 0
M  V30 93 H -2.6601 0.1994 -10.5936 0
M  V30 94 H -2.9503 1.7175 -9.7246 0
M  V30 95 H -4.132 0.3919 -9.6122 0
M  V30 96 H 8.0422 1.0813 -0.7663 0
M  V30 END ATOM
M  V30 BEGIN BOND
M  V30 1 1 1 2
M  V30 2 1 1 3
M  V30 3 1 2 4
M  V30 4 2 3 5
M  V30 5 1 3 6
M  V30 6 2 4 7
M  V30 7 1 4 8
M  V30 8 1 5 9
M  V30 9 1 5 10
M  V30 10 1 6 11
M  V30 11 1 7 12
M  V30 12 1 7 13
M  V30 13 1 8 14
M  V30 14 1 9 15
M  V30 15 1 9 16
M  V30 16 1 11 17
M  V30 17 1 12 18
M  V30 18 1 12 19
M  V30 19 1 14 20
M  V30 20 2 15 21
M  V30 21 1 16 22
M  V30 22 1 17 23
M  V30 23 2 18 24
M  V30 24 1 19 25
M  V30 25 1 20 26
M  V30 26 2 22 27
M  V30 27 1 22 28
M  V30 28 2 23 29
M  V30 29 1 23 30
M  V30 30 2 25 31
M  V30 31 1 25 32
M  V30 32 2 26 33
M  V30 33 1 26 34
M  V30 34 1 27 35
M  V30 35 1 27 36
M  V30 36 2 28 37
M  V30 37 2 30 38
M  V30 38 1 30 39
M  V30 39 1 31 40
M  V30 40 1 31 41
M  V30 41 2 32 42
M  V30 42 2 34 43
M  V30 43 1 34 44
M  V30 44 2 35 45
M  V30 45 1 38 46
M  V30 46 2 39 47
M  V30 47 2 40 48
M  V30 48 1 43 49
M  V30 49 2 44 50
M  V30 50 1 45 51
M  V30 51 2 46 52
M  V30 52 1 48 53
M  V30 53 2 49 54
M  V30 54 1 37 45
M  V30 55 1 42 48
M  V30 56 1 47 52
M  V30 57 1 50 54
M  V30 58 1 6 55
M  V30 59 1 6 56
M  V30 60 1 8 57
M  V30 61 1 8 58
M  V30 62 1 10 59
M  V30 63 1 10 60
M  V30 64 1 10 61
M  V30 65 1 11 62
M  V30 66 1 11 63
M  V30 67 1 13 64
M  V30 68 1 13 65
M  V30 69 1 13 66
M  V30 70 1 14 67
M  V30 71 1 14 68
M  V30 72 1 15 69
M  V30 73 1 16 70
M  V30 74 1 16 71
M  V30 75 1 18 72
M  V30 76 1 19 73
M  V30 77 1 19 74
M  V30 78 1 28 75
M  V30 79 1 32 76
M  V30 80 1 36 77
M  V30 81 1 36 78
M  V30 82 1 38 79
M  V30 83 1 39 80
M  V30 84 1 41 81
M  V30 85 1 41 82
M  V30 86 1 43 83
M  V30 87 1 44 84
M  V30 88 1 46 85
M  V30 89 1 47 86
M  V30 90 1 49 87
M  V30 91 1 50 88
M  V30 92 1 51 89
M  V30 93 1 51 90
M  V30 94 1 51 91
M  V30 95 1 52 92
M  V30 96 1 53 93
M  V30 97 1 53 94
M  V30 98 1 53 95
M  V30 99 1 54 96
M  V30 END BOND
M  V30 END CTAB
M  END
>  <level_0>
1073

>  <index>
1073

>  <NO.>
1074

>  <Name>
bisbentiamine

>  <SMILES>
C/C(=C(/CCOC(=O)c1ccccc1)SS/C(CCOC(=O)c1ccccc1)=C(\C)N(C=O)Cc1cnc(C)nc1N)N(C=O)Cc1cnc(C)nc1N

>  <logBB>


>  <Class>
1

>  <MW>
770.27

>  <nHBAcc>
14

>  <nHBDon>
2

>  <SLogP>
6.0

>  <TopoPSA>
196.82

>  <MMFF94 Energy>
-5.4996

$$$$
C/C=C/C=C/C1OC(O)(C(CC)C(=O)NC/C=C/C=C(\C)C(OC)C(C)C2OC(/C=C/C=C/C=C(\C)C(=O)c3c(O)ccn(C)c3=O)C(O)C2O)C(O)C(OC2OC(C)C(OC3OC(C)C(OC)C(O)C3OC)C(OC)C2O)C1(C)C
Actelion Java MolfileCreator 2.0

  0  0  0  0  0  0              0 V3000
M  V30 BEGIN CTAB
M  V30 COUNTS 169 173 0 0 0
M  V30 BEGIN ATOM
M  V30 1 O 2.1395 -5.7927 4.0442 0
M  V30 2 C 0.9362 -6.0137 3.9247 0
M  V30 3 N 0.3954 -7.3028 3.8899 0
M  V30 4 C -0.0394 -4.8806 3.8398 0
M  V30 5 C -0.9672 -7.5314 3.8654 0
M  V30 6 C 1.2868 -8.4528 3.9342 0
M  V30 7 C -1.3577 -5.1597 3.8605 0
M  V30 8 C 0.3759 -3.4558 3.7793 0
M  V30 9 C -1.8353 -6.5159 3.8617 0
M  V30 10 O -2.3731 -4.2281 3.8602 0
M  V30 11 O -0.3232 -2.5835 4.3014 0
M  V30 12 C 1.6228 -3.0736 3.0466 0
M  V30 13 C 1.8286 -3.5871 1.818 0
M  V30 14 C 2.483 -2.0955 3.7886 0
M  V30 15 C 2.9664 -3.328 0.9588 0
M  V30 16 C 3.104 -3.892 -0.2516 0
M  V30 17 C 4.2423 -3.6451 -1.1083 0
M  V30 18 C 4.3702 -4.193 -2.3269 0
M  V30 19 C 5.5278 -3.9404 -3.2467 0
M  V30 20 O 5.0306 -3.2898 -4.4254 0
M  V30 21 C 6.291 -5.1895 -3.7184 0
M  V30 22 C 5.6864 -3.8437 -5.5823 0
M  V30 23 O 5.4358 -6.3121 -3.963 0
M  V30 24 C 6.857 -4.6889 -5.0391 0
M  V30 25 C 6.0565 -2.735 -6.5972 0
M  V30 26 O 8.0252 -3.9032 -4.8002 0
M  V30 27 C 4.8047 -1.9713 -7.1424 0
M  V30 28 C 6.8473 -3.333 -7.7756 0
M  V30 29 O 5.2538 -1.0239 -8.1298 0
M  V30 30 C 4.0001 -1.2238 -6.083 0
M  V30 31 C 4.2325 -0.6356 -9.04 0
M  V30 32 C 2.7208 -1.5812 -5.8406 0
M  V30 33 C 4.7399 -0.1315 -5.3516 0
M  V30 34 C 1.8802 -1.088 -4.774 0
M  V30 35 C 0.5884 -1.4283 -4.6402 0
M  V30 36 C -0.2367 -1.0305 -3.461 0
M  V30 37 N -0.9464 0.1789 -3.7822 0
M  V30 38 C -0.4974 1.4147 -3.3972 0
M  V30 39 O 0.5287 1.5959 -2.7422 0
M  V30 40 C -1.4106 2.5855 -3.7221 0
M  V30 41 C -2.6839 2.5117 -2.8364 0
M  V30 42 C -1.7284 2.6966 -5.2262 0
M  V30 43 O -3.4298 3.7307 -2.9092 0
M  V30 44 O -3.5447 1.495 -3.3768 0
M  V30 45 C -2.4163 2.1377 -1.3552 0
M  V30 46 C -0.4827 2.9491 -6.0675 0
M  V30 47 C -2.85 4.8743 -2.2708 0
M  V30 48 O -3.6611 1.7489 -0.7369 0
M  V30 49 C -1.7703 3.3152 -0.608 0
M  V30 50 C -3.7119 6.0844 -2.5714 0
M  V30 51 C -2.5951 4.6335 -0.7495 0
M  V30 52 O -1.5566 3.0202 0.7846 0
M  V30 53 C -4.9224 6.0691 -3.1534 0
M  V30 54 C -1.7587 5.7904 -0.1501 0
M  V30 55 C -3.9234 4.5791 0.0405 0
M  V30 56 C -0.6121 1.9743 1.0219 0
M  V30 57 C -5.6838 7.2682 -3.4165 0
M  V30 58 O -1.2739 0.7147 1.1292 0
M  V30 59 C 0.2798 2.2841 2.2513 0
M  V30 60 C -6.893 7.2465 -3.9962 0
M  V30 61 C -2.0289 0.5591 2.3382 0
M  V30 62 O 1.4369 1.4248 2.2777 0
M  V30 63 C -0.484 2.0998 3.5761 0
M  V30 64 C -7.7023 8.4698 -4.279 0
M  V30 65 C -1.1294 0.6952 3.5813 0
M  V30 66 C -2.6882 -0.8161 2.2617 0
M  V30 67 O -1.5131 3.0875 3.7665 0
M  V30 68 O -1.9131 0.4317 4.7555 0
M  V30 69 C -1.0113 4.3822 4.0636 0
M  V30 70 C -1.1327 0.2134 5.9364 0
M  V30 71 O -0.8918 1.442 6.6272 0
M  V30 72 C -1.8621 -0.8219 6.8249 0
M  V30 73 C -2.0881 2.0734 7.1041 0
M  V30 74 O -1.0772 -1.3021 7.9375 0
M  V30 75 C -3.1449 -0.1872 7.3883 0
M  V30 76 C -2.8886 1.1706 8.0646 0
M  V30 77 C -1.6707 3.3772 7.7787 0
M  V30 78 C -0.0657 -2.2238 7.56 0
M  V30 79 O -3.7586 -1.0986 8.3147 0
M  V30 80 O -2.1585 0.9986 9.294 0
M  V30 81 C -2.9763 1.1262 10.449 0
M  V30 82 H -1.3032 -8.5644 3.8617 0
M  V30 83 H 1.0488 -9.1253 3.1039 0
M  V30 84 H 1.1399 -8.9766 4.884 0
M  V30 85 H 2.3364 -8.1582 3.854 0
M  V30 86 H -2.9066 -6.6902 3.8512 0
M  V30 87 H -1.9831 -3.343 4.0307 0
M  V30 88 H 1.0875 -4.2631 1.392 0
M  V30 89 H 3.4556 -1.9314 3.3199 0
M  V30 90 H 1.9818 -1.1251 3.8631 0
M  V30 91 H 2.677 -2.4589 4.8039 0
M  V30 92 H 3.7378 -2.6538 1.3193 0
M  V30 93 H 2.3424 -4.5699 -0.6315 0
M  V30 94 H 5.0131 -2.9727 -0.7371 0
M  V30 95 H 3.5968 -4.849 -2.7195 0
M  V30 96 H 6.2366 -3.2376 -2.7899 0
M  V30 97 H 7.0519 -5.4821 -2.9874 0
M  V30 98 H 4.9537 -4.5192 -6.0439 0
M  V30 99 H 6.003 -7.0921 -4.0858 0
M  V30 100 H 7.1136 -5.4935 -5.736 0
M  V30 101 H 6.7109 -2.0021 -6.1075 0
M  V30 102 H 8.7563 -4.5089 -4.5895 0
M  V30 103 H 4.1736 -2.7155 -7.6484 0
M  V30 104 H 7.1552 -2.5588 -8.4856 0
M  V30 105 H 6.2443 -4.0694 -8.3175 0
M  V30 106 H 7.7632 -3.8274 -7.44 0
M  V30 107 H 4.673 0.0442 -9.7743 0
M  V30 108 H 3.4248 -0.1069 -8.5263 0
M  V30 109 H 3.8379 -1.5072 -9.5705 0
M  V30 110 H 2.2793 -2.3716 -6.4459 0
M  V30 111 H 5.4585 -0.5565 -4.6448 0
M  V30 112 H 5.2867 0.5033 -6.0563 0
M  V30 113 H 4.0774 0.537 -4.796 0
M  V30 114 H 2.3339 -0.4555 -4.0145 0
M  V30 115 H 0.109 -2.069 -5.3742 0
M  V30 116 H 0.3762 -0.8883 -2.5642 0
M  V30 117 H -0.9744 -1.8084 -3.2401 0
M  V30 118 H -1.8559 0.1053 -4.2282 0
M  V30 119 H -0.8326 3.4789 -3.4599 0
M  V30 120 H -2.4243 3.5283 -5.3893 0
M  V30 121 H -2.2232 1.7936 -5.6 0
M  V30 122 H -4.1864 1.3499 -2.649 0
M  V30 123 H -1.8039 1.2365 -1.2889 0
M  V30 124 H 0.0318 3.8591 -5.7433 0
M  V30 125 H -0.7591 3.0739 -7.1193 0
M  V30 126 H 0.2201 2.113 -6.0034 0
M  V30 127 H -1.8929 5.0869 -2.7605 0
M  V30 128 H -3.4597 1.6751 0.2165 0
M  V30 129 H -0.783 3.5063 -1.0501 0
M  V30 130 H -3.2786 7.0427 -2.2948 0
M  V30 131 H -5.3696 5.1196 -3.4438 0
M  V30 132 H -2.287 6.748 -0.2032 0
M  V30 133 H -0.8078 5.9056 -0.6819 0
M  V30 134 H -1.5295 5.6114 0.9059 0
M  V30 135 H -4.383 5.5719 0.1131 0
M  V30 136 H -4.6628 3.9289 -0.4349 0
M  V30 137 H -3.7699 4.2277 1.0663 0
M  V30 138 H 0.0592 1.8853 0.1595 0
M  V30 139 H -5.2428 8.2188 -3.1247 0
M  V30 140 H 0.6511 3.31 2.1663 0
M  V30 141 H -7.3407 6.2996 -4.2902 0
M  V30 142 H -2.8345 1.3035 2.3646 0
M  V30 143 H 1.8549 1.4562 1.3983 0
M  V30 144 H 0.2161 2.1603 4.4177 0
M  V30 145 H -7.899 8.5462 -5.3526 0
M  V30 146 H -7.1954 9.3856 -3.9589 0
M  V30 147 H -8.6619 8.4106 -3.7565 0
M  V30 148 H -0.3375 -0.0598 3.5041 0
M  V30 149 H -3.3192 -1.017 3.1322 0
M  V30 150 H -3.3101 -0.8874 1.3624 0
M  V30 151 H -1.9339 -1.6058 2.1806 0
M  V30 152 H -0.2664 4.3451 4.8634 0
M  V30 153 H -1.848 5.0033 4.3949 0
M  V30 154 H -0.5813 4.8439 3.1717 0
M  V30 155 H -0.1493 -0.1813 5.6658 0
M  V30 156 H -2.1631 -1.6923 6.2273 0
M  V30 157 H -2.7152 2.3251 6.2399 0
M  V30 158 H -3.8586 -0.0374 6.5692 0
M  V30 159 H -3.8511 1.652 8.2842 0
M  V30 160 H -0.9573 3.1978 8.5902 0
M  V30 161 H -2.5369 3.912 8.1799 0
M  V30 162 H -1.1619 4.0311 7.0644 0
M  V30 163 H 0.6903 -1.748 6.9316 0
M  V30 164 H -0.5019 -3.0866 7.0484 0
M  V30 165 H 0.4257 -2.5788 8.47 0
M  V30 166 H -3.0182 -1.3429 8.91 0
M  V30 167 H -3.7996 0.4072 10.435 0
M  V30 168 H -3.3696 2.1448 10.5218 0
M  V30 169 H -2.3583 0.9307 11.3293 0
M  V30 END ATOM
M  V30 BEGIN BOND
M  V30 1 2 1 2
M  V30 2 1 2 3
M  V30 3 1 2 4
M  V30 4 1 3 5
M  V30 5 1 3 6
M  V30 6 2 4 7
M  V30 7 1 4 8
M  V30 8 2 5 9
M  V30 9 1 7 10
M  V30 10 2 8 11
M  V30 11 1 8 12
M  V30 12 2 12 13
M  V30 13 1 12 14
M  V30 14 1 13 15
M  V30 15 2 15 16
M  V30 16 1 16 17
M  V30 17 2 17 18
M  V30 18 1 18 19
M  V30 19 1 19 20
M  V30 20 1 19 21
M  V30 21 1 20 22
M  V30 22 1 21 23
M  V30 23 1 21 24
M  V30 24 1 22 25
M  V30 25 1 24 26
M  V30 26 1 25 27
M  V30 27 1 25 28
M  V30 28 1 27 29
M  V30 29 1 27 30
M  V30 30 1 29 31
M  V30 31 2 30 32
M  V30 32 1 30 33
M  V30 33 1 32 34
M  V30 34 2 34 35
M  V30 35 1 35 36
M  V30 36 1 36 37
M  V30 37 1 37 38
M  V30 38 2 38 39
M  V30 39 1 38 40
M  V30 40 1 40 41
M  V30 41 1 40 42
M  V30 42 1 41 43
M  V30 43 1 41 44
M  V30 44 1 41 45
M  V30 45 1 42 46
M  V30 46 1 43 47
M  V30 47 1 45 48
M  V30 48 1 45 49
M  V30 49 1 47 50
M  V30 50 1 47 51
M  V30 51 1 49 52
M  V30 52 2 50 53
M  V30 53 1 51 54
M  V30 54 1 51 55
M  V30 55 1 52 56
M  V30 56 1 53 57
M  V30 57 1 56 58
M  V30 58 1 56 59
M  V30 59 2 57 60
M  V30 60 1 58 61
M  V30 61 1 59 62
M  V30 62 1 59 63
M  V30 63 1 60 64
M  V30 64 1 61 65
M  V30 65 1 61 66
M  V30 66 1 63 67
M  V30 67 1 65 68
M  V30 68 1 67 69
M  V30 69 1 68 70
M  V30 70 1 70 71
M  V30 71 1 70 72
M  V30 72 1 71 73
M  V30 73 1 72 74
M  V30 74 1 72 75
M  V30 75 1 73 76
M  V30 76 1 73 77
M  V30 77 1 74 78
M  V30 78 1 75 79
M  V30 79 1 76 80
M  V30 80 1 80 81
M  V30 81 1 7 9
M  V30 82 1 22 24
M  V30 83 1 49 51
M  V30 84 1 63 65
M  V30 85 1 75 76
M  V30 86 1 5 82
M  V30 87 1 6 83
M  V30 88 1 6 84
M  V30 89 1 6 85
M  V30 90 1 9 86
M  V30 91 1 10 87
M  V30 92 1 13 88
M  V30 93 1 14 89
M  V30 94 1 14 90
M  V30 95 1 14 91
M  V30 96 1 15 92
M  V30 97 1 16 93
M  V30 98 1 17 94
M  V30 99 1 18 95
M  V30 100 1 19 96
M  V30 101 1 21 97
M  V30 102 1 22 98
M  V30 103 1 23 99
M  V30 104 1 24 100
M  V30 105 1 25 101
M  V30 106 1 26 102
M  V30 107 1 27 103
M  V30 108 1 28 104
M  V30 109 1 28 105
M  V30 110 1 28 106
M  V30 111 1 31 107
M  V30 112 1 31 108
M  V30 113 1 31 109
M  V30 114 1 32 110
M  V30 115 1 33 111
M  V30 116 1 33 112
M  V30 117 1 33 113
M  V30 118 1 34 114
M  V30 119 1 35 115
M  V30 120 1 36 116
M  V30 121 1 36 117
M  V30 122 1 37 118
M  V30 123 1 40 119
M  V30 124 1 42 120
M  V30 125 1 42 121
M  V30 126 1 44 122
M  V30 127 1 45 123
M  V30 128 1 46 124
M  V30 129 1 46 125
M  V30 130 1 46 126
M  V30 131 1 47 127
M  V30 132 1 48 128
M  V30 133 1 49 129
M  V30 134 1 50 130
M  V30 135 1 53 131
M  V30 136 1 54 132
M  V30 137 1 54 133
M  V30 138 1 54 134
M  V30 139 1 55 135
M  V30 140 1 55 136
M  V30 141 1 55 137
M  V30 142 1 56 138
M  V30 143 1 57 139
M  V30 144 1 59 140
M  V30 145 1 60 141
M  V30 146 1 61 142
M  V30 147 1 62 143
M  V30 148 1 63 144
M  V30 149 1 64 145
M  V30 150 1 64 146
M  V30 151 1 64 147
M  V30 152 1 65 148
M  V30 153 1 66 149
M  V30 154 1 66 150
M  V30 155 1 66 151
M  V30 156 1 69 152
M  V30 157 1 69 153
M  V30 158 1 69 154
M  V30 159 1 70 155
M  V30 160 1 72 156
M  V30 161 1 73 157
M  V30 162 1 75 158
M  V30 163 1 76 159
M  V30 164 1 77 160
M  V30 165 1 77 161
M  V30 166 1 77 162
M  V30 167 1 78 163
M  V30 168 1 78 164
M  V30 169 1 78 165
M  V30 170 1 79 166
M  V30 171 1 81 167
M  V30 172 1 81 168
M  V30 173 1 81 169
M  V30 END BOND
M  V30 END CTAB
M  END
>  <level_0>
1082

>  <index>
1082

>  <NO.>
1083

>  <Name>
efrotomycin

>  <SMILES>
C/C=C/C=C/C1OC(O)(C(CC)C(=O)NC/C=C/C=C(\C)C(OC)C(C)C2OC(/C=C/C=C/C=C(\C)C(=O)c3c(O)ccn(C)c3=O)C(O)C2O)C(O)C(OC2OC(C)C(OC3OC(C)C(OC)C(O)C3OC)C(OC)C2O)C1(C)C

>  <logBB>


>  <Class>
-1

>  <MW>
1144.59

>  <nHBAcc>
20

>  <nHBDon>
8

>  <SLogP>
2.75

>  <TopoPSA>
302.08

>  <MMFF94 Energy>
287.08

$$$$
C=C(C)[C@@H]1CCC(C)=CC1c1c(O)cc(CCCCC)cc1O
Actelion Java MolfileCreator 2.0

  0  0  0  0  0  0              0 V3000
M  V30 BEGIN CTAB
M  V30 COUNTS 53 54 0 0 0
M  V30 BEGIN ATOM
M  V30 1 O 1.0985 -1.0985 -1.7267 0
M  V30 2 C 0.316 -0.6005 -0.7203 0
M  V30 3 C 0.9212 -0.0139 0.4038 0
M  V30 4 C -1.0748 -0.6864 -0.8448 0
M  V30 5 C 0.0675 0.4922 1.3981 0
M  V30 6 C 2.4403 0.0797 0.5612 0
M  V30 7 C -1.907 -0.186 0.1618 0
M  V30 8 O 0.6056 1.0858 2.509 0
M  V30 9 C -1.3244 0.4117 1.2838 0
M  V30 10 C 3.0681 0.9316 -0.5318 0
M  V30 11 C 3.1154 -1.3237 0.7018 0 CFG=2
M  V30 12 C -3.407 -0.2607 0.0245 0
M  V30 13 C 4.2186 0.6284 -1.1599 0
M  V30 14 C 2.7399 -2.0673 1.9887 0
M  V30 15 C 4.643 -1.1877 0.5628 0
M  V30 16 C -3.9721 0.9747 -0.6799 0
M  V30 17 C 5.0271 -0.5891 -0.7929 0
M  V30 18 C 4.7668 1.476 -2.27 0
M  V30 19 C 2.0247 -3.2053 1.9434 0
M  V30 20 C 3.1877 -1.4958 3.3069 0
M  V30 21 C -5.4935 0.889 -0.8142 0
M  V30 22 C -6.0599 2.1223 -1.5176 0
M  V30 23 C -7.5721 2.0409 -1.6533 0
M  V30 24 H 0.5313 -1.4027 -2.452 0
M  V30 25 H -1.52 -1.1433 -1.7244 0
M  V30 26 H 2.6621 0.6416 1.4773 0
M  V30 27 H -0.1124 1.3429 3.1089 0
M  V30 28 H -1.9642 0.8146 2.0642 0
M  V30 29 H 2.5196 1.8294 -0.8087 0
M  V30 30 H 2.7975 -1.9516 -0.142 0
M  V30 31 H -3.8587 -0.3691 1.0189 0
M  V30 32 H -3.6772 -1.1689 -0.5291 0
M  V30 33 H 5.0406 -0.5431 1.3578 0
M  V30 34 H 5.1292 -2.1648 0.6746 0
M  V30 35 H -3.521 1.0752 -1.6752 0
M  V30 36 H -3.7038 1.8791 -0.119 0
M  V30 37 H 4.8987 -1.3442 -1.5783 0
M  V30 38 H 6.0928 -0.3322 -0.7641 0
M  V30 39 H 5.7518 1.8687 -1.9976 0
M  V30 40 H 4.8687 0.8826 -3.1843 0
M  V30 41 H 4.1183 2.3289 -2.4965 0
M  V30 42 H 1.7478 -3.7419 2.8453 0
M  V30 43 H 1.6864 -3.6237 1.0001 0
M  V30 44 H 4.2796 -1.4795 3.372 0
M  V30 45 H 2.8135 -0.4779 3.444 0
M  V30 46 H 2.8225 -2.0892 4.1526 0
M  V30 47 H -5.9455 0.7937 0.1806 0
M  V30 48 H -5.7623 -0.0119 -1.3791 0
M  V30 49 H -5.7976 3.0257 -0.9547 0
M  V30 50 H -5.6143 2.2202 -2.5144 0
M  V30 51 H -7.956 2.9326 -2.1588 0
M  V30 52 H -7.8669 1.1646 -2.2395 0
M  V30 53 H -8.0512 1.9746 -0.6711 0
M  V30 END ATOM
M  V30 BEGIN BOND
M  V30 1 1 1 2
M  V30 2 2 2 3
M  V30 3 1 2 4
M  V30 4 1 3 5
M  V30 5 1 3 6
M  V30 6 2 4 7
M  V30 7 1 5 8
M  V30 8 2 5 9
M  V30 9 1 6 10
M  V30 10 1 6 11
M  V30 11 1 7 12
M  V30 12 2 10 13
M  V30 13 1 11 14
M  V30 14 1 11 15
M  V30 15 1 12 16
M  V30 16 1 13 17
M  V30 17 1 13 18
M  V30 18 2 14 19
M  V30 19 1 14 20
M  V30 20 1 16 21
M  V30 21 1 21 22
M  V30 22 1 22 23
M  V30 23 1 7 9
M  V30 24 1 15 17
M  V30 25 1 1 24
M  V30 26 1 4 25
M  V30 27 1 6 26
M  V30 28 1 8 27
M  V30 29 1 9 28
M  V30 30 1 10 29
M  V30 31 1 11 30
M  V30 32 1 12 31
M  V30 33 1 12 32
M  V30 34 1 15 33
M  V30 35 1 15 34
M  V30 36 1 16 35
M  V30 37 1 16 36
M  V30 38 1 17 37
M  V30 39 1 17 38
M  V30 40 1 18 39
M  V30 41 1 18 40
M  V30 42 1 18 41
M  V30 43 1 19 42
M  V30 44 1 19 43
M  V30 45 1 20 44
M  V30 46 1 20 45
M  V30 47 1 20 46
M  V30 48 1 21 47
M  V30 49 1 21 48
M  V30 50 1 22 49
M  V30 51 1 22 50
M  V30 52 1 23 51
M  V30 53 1 23 52
M  V30 54 1 23 53
M  V30 END BOND
M  V30 BEGIN COLLECTION
M  V30 MDLV30/STEABS ATOMS=(1 11)
M  V30 END COLLECTION
M  V30 END CTAB
M  END
>  <level_0>
1087

>  <index>
1087

>  <NO.>
1088

>  <Name>
resorcinol, 2-p-mentha-1,8-dien-3-yl-5-pentyl-, (-)-(e)-

>  <SMILES>
C=C(C)[C@@H]1CCC(C)=CC1c1c(O)cc(CCCCC)cc1O

>  <logBB>


>  <Class>
1

>  <MW>
314.22

>  <nHBAcc>
2

>  <nHBDon>
2

>  <SLogP>
5.85

>  <TopoPSA>
40.46

>  <MMFF94 Energy>
41.761

$$$$
C=C1c2c(Cl)ccc(O)c2C(O)=C2C(=O)C3(O)C(O)=C(C(N)=O)C(=O)C(N(C)C)C3C(O)C12
Actelion Java MolfileCreator 2.0

  0  0  0  0  0  0              0 V3000
M  V30 BEGIN CTAB
M  V30 COUNTS 54 57 0 0 0
M  V30 BEGIN ATOM
M  V30 1 Cl 1.059 0.2443 5.4669 0
M  V30 2 C 2.28 0.4421 4.2491 0
M  V30 3 C 2.0175 0.9805 2.967 0
M  V30 4 C 3.5451 -0.0475 4.5802 0
M  V30 5 C 3.0324 0.9022 1.9656 0
M  V30 6 C 0.7179 1.6159 2.5982 0
M  V30 7 C 4.5623 -0.0433 3.6367 0
M  V30 8 C 2.6893 1.2578 0.5547 0
M  V30 9 C 4.3035 0.4059 2.3406 0
M  V30 10 C 0.088 2.4841 3.4125 0
M  V30 11 C 0.2554 1.4384 1.1641 0
M  V30 12 O 3.721 1.2985 -0.3598 0
M  V30 13 C 1.4033 1.4198 0.2009 0
M  V30 14 O 5.3264 0.3234 1.434 0
M  V30 15 C -0.6771 0.2254 0.8973 0
M  V30 16 C 0.985 1.4916 -1.2372 0
M  V30 17 O -0.1463 -0.9422 1.5422 0
M  V30 18 C -0.8148 -0.1113 -0.6213 0
M  V30 19 O 1.8144 1.8002 -2.0919 0
M  V30 20 C -0.5139 1.1171 -1.5174 0
M  V30 21 C -2.1961 -0.6907 -1.0008 0
M  V30 22 O -1.3593 2.2119 -1.154 0
M  V30 23 C -0.8103 0.872 -2.9857 0
M  V30 24 N -2.6712 -1.754 -0.0784 0
M  V30 25 C -2.1442 -1.1298 -2.4838 0
M  V30 26 O -0.3924 1.9223 -3.8014 0
M  V30 27 C -1.5078 -0.1852 -3.4597 0
M  V30 28 C -4.108 -2.0036 -0.1843 0
M  V30 29 C -1.9226 -3.0099 -0.1242 0
M  V30 30 O -2.6612 -2.166 -2.9076 0
M  V30 31 C -1.7031 -0.3198 -4.9369 0
M  V30 32 O -1.2671 0.5154 -5.7266 0
M  V30 33 N -2.3815 -1.4043 -5.3827 0
M  V30 34 H 3.7388 -0.4496 5.5719 0
M  V30 35 H 5.539 -0.4293 3.914 0
M  V30 36 H 0.4588 2.7441 4.3992 0
M  V30 37 H -0.8157 3.0011 3.1013 0
M  V30 38 H -0.3165 2.3472 0.9303 0
M  V30 39 H 3.3604 1.5624 -1.2328 0
M  V30 40 H 6.1257 -0.0279 1.8531 0
M  V30 41 H -1.6615 0.4293 1.3371 0
M  V30 42 H -0.3192 -0.8493 2.4972 0
M  V30 43 H -0.0615 -0.8796 -0.8604 0
M  V30 44 H -2.9292 0.1265 -0.9474 0
M  V30 45 H -1.1897 2.9034 -1.8291 0
M  V30 46 H -0.5294 1.6844 -4.7493 0
M  V30 47 H -4.3973 -2.4519 -1.1395 0
M  V30 48 H -4.6736 -1.0742 -0.0547 0
M  V30 49 H -4.4367 -2.6764 0.6161 0
M  V30 50 H -2.1375 -3.6064 -1.0159 0
M  V30 51 H -0.842 -2.8521 -0.078 0
M  V30 52 H -2.1786 -3.6228 0.7479 0
M  V30 53 H -2.7369 -2.1139 -4.7424 0
M  V30 54 H -2.5248 -1.5279 -6.3752 0
M  V30 END ATOM
M  V30 BEGIN BOND
M  V30 1 1 1 2
M  V30 2 2 2 3
M  V30 3 1 2 4
M  V30 4 1 3 5
M  V30 5 1 3 6
M  V30 6 2 4 7
M  V30 7 1 5 8
M  V30 8 2 5 9
M  V30 9 2 6 10
M  V30 10 1 6 11
M  V30 11 1 8 12
M  V30 12 2 8 13
M  V30 13 1 9 14
M  V30 14 1 11 15
M  V30 15 1 13 16
M  V30 16 1 15 17
M  V30 17 1 15 18
M  V30 18 2 16 19
M  V30 19 1 16 20
M  V30 20 1 18 21
M  V30 21 1 20 22
M  V30 22 1 20 23
M  V30 23 1 21 24
M  V30 24 1 21 25
M  V30 25 1 23 26
M  V30 26 2 23 27
M  V30 27 1 24 28
M  V30 28 1 24 29
M  V30 29 2 25 30
M  V30 30 1 27 31
M  V30 31 2 31 32
M  V30 32 1 31 33
M  V30 33 1 7 9
M  V30 34 1 11 13
M  V30 35 1 18 20
M  V30 36 1 25 27
M  V30 37 1 4 34
M  V30 38 1 7 35
M  V30 39 1 10 36
M  V30 40 1 10 37
M  V30 41 1 11 38
M  V30 42 1 12 39
M  V30 43 1 14 40
M  V30 44 1 15 41
M  V30 45 1 17 42
M  V30 46 1 18 43
M  V30 47 1 21 44
M  V30 48 1 22 45
M  V30 49 1 26 46
M  V30 50 1 28 47
M  V30 51 1 28 48
M  V30 52 1 28 49
M  V30 53 1 29 50
M  V30 54 1 29 51
M  V30 55 1 29 52
M  V30 56 1 33 53
M  V30 57 1 33 54
M  V30 END BOND
M  V30 END CTAB
M  END
>  <level_0>
1095

>  <index>
1095

>  <NO.>
1096

>  <Name>
meclocycline

>  <SMILES>
C=C1c2c(Cl)ccc(O)c2C(O)=C2C(=O)C3(O)C(O)=C(C(N)=O)C(=O)C(N(C)C)C3C(O)C12

>  <logBB>


>  <Class>
-1

>  <MW>
476.1

>  <nHBAcc>
9

>  <nHBDon>
6

>  <SLogP>
0.06

>  <TopoPSA>
181.62

>  <MMFF94 Energy>
131.08

$$$$
C=C1c2cccc(O)c2C(O)=C2C(=O)[C@]3(O)C(O)=C(C(N)=O)C(=O)[C@@H](N(C)C)[C@@H]3[C@@H](O)[C@H]12
Actelion Java MolfileCreator 2.0

  0  0  0  0  0  0              0 V3000
M  V30 BEGIN CTAB
M  V30 COUNTS 54 57 0 0 0
M  V30 BEGIN ATOM
M  V30 1 O -0.484 -1.7756 -2.6644 0
M  V30 2 C -0.0887 -0.8014 -2.0264 0
M  V30 3 C -1.0697 0.094 -1.3482 0
M  V30 4 C 1.4063 -0.4373 -1.7956 0 CFG=2
M  V30 5 C -2.1914 -0.4132 -0.8156 0
M  V30 6 C -0.6055 1.5062 -1.2074 0 CFG=1
M  V30 7 O 1.8186 0.4662 -2.8316 0
M  V30 8 C 2.265 -1.6782 -1.882 0
M  V30 9 C 1.5854 0.2822 -0.4397 0 CFG=1
M  V30 10 O -2.5777 -1.7224 -1.0112 0
M  V30 11 C -3.0128 0.4199 0.103 0
M  V30 12 C -1.6708 2.4296 -0.6358 0
M  V30 13 C 0.7441 1.5886 -0.4371 0 CFG=1
M  V30 14 O 2.6503 -1.969 -3.192 0
M  V30 15 C 2.6719 -2.3897 -0.807 0
M  V30 16 C 1.3003 -0.7234 0.7065 0 CFG=1
M  V30 17 C -4.0342 -0.1106 0.924 0
M  V30 18 C -2.7378 1.811 0.1992 0
M  V30 19 C -1.6796 3.7335 -0.9739 0
M  V30 20 O 1.5532 2.6071 -1.0682 0
M  V30 21 C 2.2388 -1.9613 0.5647 0
M  V30 22 C 3.5493 -3.5813 -1.0308 0
M  V30 23 N 1.4246 -0.2278 2.0912 0
M  V30 24 O -4.3299 -1.4481 0.9053 0
M  V30 25 C -4.7586 0.6939 1.8085 0
M  V30 26 C -3.4632 2.5972 1.1176 0
M  V30 27 O 2.5951 -2.6336 1.5375 0
M  V30 28 O 3.9112 -3.9138 -2.1581 0
M  V30 29 N 3.9368 -4.2879 0.0573 0
M  V30 30 C 2.5339 0.6688 2.3716 0
M  V30 31 C 0.1764 0.173 2.7227 0
M  V30 32 C -4.4685 2.0466 1.9084 0
M  V30 33 H -0.4327 1.8615 -2.2364 0
M  V30 34 H 2.0564 -0.1155 -3.588 0
M  V30 35 H 2.6427 0.5835 -0.3721 0
M  V30 36 H -2.0673 -2.0996 -1.7581 0
M  V30 37 H 0.5862 1.955 0.5768 0
M  V30 38 H 3.189 -2.7974 -3.1963 0
M  V30 39 H 0.3002 -1.1586 0.5979 0
M  V30 40 H -0.8993 4.1498 -1.6073 0
M  V30 41 H -2.4483 4.4309 -0.6609 0
M  V30 42 H 1.8266 2.26 -1.9443 0
M  V30 43 H -5.124 -1.6205 1.4331 0
M  V30 44 H -5.5377 0.2753 2.4388 0
M  V30 45 H -3.2469 3.6554 1.2427 0
M  V30 46 H 3.64 -4.0248 0.9978 0
M  V30 47 H 4.5259 -5.1004 -0.0569 0
M  V30 48 H 2.3816 1.6709 1.9603 0
M  V30 49 H 3.4733 0.2705 1.9735 0
M  V30 50 H 2.6778 0.7708 3.4531 0
M  V30 51 H -0.2313 1.1013 2.3171 0
M  V30 52 H -0.5837 -0.609 2.6183 0
M  V30 53 H 0.3213 0.3149 3.7997 0
M  V30 54 H -5.0172 2.674 2.6063 0
M  V30 END ATOM
M  V30 BEGIN BOND
M  V30 1 2 1 2
M  V30 2 1 2 3
M  V30 3 1 2 4
M  V30 4 2 3 5
M  V30 5 1 3 6
M  V30 6 1 4 7
M  V30 7 1 4 8
M  V30 8 1 4 9
M  V30 9 1 5 10
M  V30 10 1 5 11
M  V30 11 1 6 12
M  V30 12 1 6 13
M  V30 13 1 8 14
M  V30 14 2 8 15
M  V30 15 1 9 16
M  V30 16 2 11 17
M  V30 17 1 11 18
M  V30 18 2 12 19
M  V30 19 1 13 20
M  V30 20 1 15 21
M  V30 21 1 15 22
M  V30 22 1 16 23
M  V30 23 1 17 24
M  V30 24 1 17 25
M  V30 25 2 18 26
M  V30 26 2 21 27
M  V30 27 2 22 28
M  V30 28 1 22 29
M  V30 29 1 23 30
M  V30 30 1 23 31
M  V30 31 2 25 32
M  V30 32 1 9 13
M  V30 33 1 12 18
M  V30 34 1 16 21
M  V30 35 1 26 32
M  V30 36 1 6 33
M  V30 37 1 7 34
M  V30 38 1 9 35
M  V30 39 1 10 36
M  V30 40 1 13 37
M  V30 41 1 14 38
M  V30 42 1 16 39
M  V30 43 1 19 40
M  V30 44 1 19 41
M  V30 45 1 20 42
M  V30 46 1 24 43
M  V30 47 1 25 44
M  V30 48 1 26 45
M  V30 49 1 29 46
M  V30 50 1 29 47
M  V30 51 1 30 48
M  V30 52 1 30 49
M  V30 53 1 30 50
M  V30 54 1 31 51
M  V30 55 1 31 52
M  V30 56 1 31 53
M  V30 57 1 32 54
M  V30 END BOND
M  V30 BEGIN COLLECTION
M  V30 MDLV30/STEABS ATOMS=(5 4 6 9 13 16)
M  V30 END COLLECTION
M  V30 END CTAB
M  END
>  <level_0>
1096

>  <index>
1096

>  <NO.>
1097

>  <Name>
methacycline

>  <SMILES>
C=C1c2cccc(O)c2C(O)=C2C(=O)[C@]3(O)C(O)=C(C(N)=O)C(=O)[C@@H](N(C)C)[C@@H]3[C@@H](O)[C@H]12

>  <logBB>


>  <Class>
-1

>  <MW>
442.14

>  <nHBAcc>
9

>  <nHBDon>
6

>  <SLogP>
-0.59

>  <TopoPSA>
181.62

>  <MMFF94 Energy>
120.68

$$$$
C=CC1=C(C(=O)O)N2C(=O)[C@@H](NC(=O)/C(=N/O)c3csc(N)n3)[C@H]2SC1
Actelion Java MolfileCreator 2.0

  0  0  0  0  0  0              0 V3000
M  V30 BEGIN CTAB
M  V30 COUNTS 39 41 0 0 0
M  V30 BEGIN ATOM
M  V30 1 S -1.4055 1.0747 -1.1574 0
M  V30 2 C 0.3998 1.0023 -1.2454 0 CFG=1
M  V30 3 C -1.474 2.7848 -1.7858 0
M  V30 4 N 0.9009 2.0191 -0.3528 0
M  V30 5 C 1.1563 -0.0329 -0.357 0 CFG=1
M  V30 6 C -0.5264 3.7601 -1.0903 0
M  V30 7 C 0.5501 3.333 -0.381 0
M  V30 8 C 1.6581 1.2226 0.4258 0
M  V30 9 N 0.3566 -1.0047 0.4264 0
M  V30 10 C -0.8711 5.1826 -1.2176 0
M  V30 11 C 1.4068 4.2618 0.409 0
M  V30 12 O 2.3538 1.4355 1.3903 0
M  V30 13 C -0.1404 -2.152 -0.1566 0
M  V30 14 C -1.7946 5.717 -2.0289 0
M  V30 15 O 1.0422 5.0656 1.2474 0
M  V30 16 O 2.701 4.1351 0.058 0
M  V30 17 O 0.0134 -2.4556 -1.3306 0
M  V30 18 C -0.9594 -3.0307 0.7877 0
M  V30 19 N -1.943 -2.4273 1.4039 0
M  V30 20 C -0.5646 -4.4262 0.954 0
M  V30 21 O -2.6144 -3.2338 2.3293 0
M  V30 22 N 0.7837 -4.7797 0.8902 0
M  V30 23 C -1.4139 -5.5009 1.1467 0
M  V30 24 C 0.9316 -6.0707 1.0451 0
M  V30 25 S -0.519 -6.955 1.2708 0
M  V30 26 N 2.122 -6.676 1.0299 0
M  V30 27 H 0.8095 1.0808 -2.2594 0
M  V30 28 H -2.5147 3.0923 -1.6391 0
M  V30 29 H -1.2706 2.7737 -2.8624 0
M  V30 30 H 1.9794 -0.5369 -0.8795 0
M  V30 31 H 0.1049 -0.8231 1.3936 0
M  V30 32 H -0.317 5.8926 -0.6038 0
M  V30 33 H -2.4106 5.1404 -2.7092 0
M  V30 34 H -1.9534 6.7927 -2.0319 0
M  V30 35 H 3.1746 4.7138 0.6902 0
M  V30 36 H -3.2978 -2.6317 2.6824 0
M  V30 37 H -2.4923 -5.505 1.2117 0
M  V30 38 H 2.2212 -7.6749 1.1428 0
M  V30 39 H 2.9607 -6.1304 0.8815 0
M  V30 END ATOM
M  V30 BEGIN BOND
M  V30 1 1 1 2
M  V30 2 1 1 3
M  V30 3 1 2 4
M  V30 4 1 2 5
M  V30 5 1 3 6
M  V30 6 1 4 7
M  V30 7 1 4 8
M  V30 8 1 5 9
M  V30 9 1 6 10
M  V30 10 1 7 11
M  V30 11 2 8 12
M  V30 12 1 9 13
M  V30 13 2 10 14
M  V30 14 2 11 15
M  V30 15 1 11 16
M  V30 16 2 13 17
M  V30 17 1 13 18
M  V30 18 2 18 19
M  V30 19 1 18 20
M  V30 20 1 19 21
M  V30 21 1 20 22
M  V30 22 2 20 23
M  V30 23 2 22 24
M  V30 24 1 23 25
M  V30 25 1 24 26
M  V30 26 1 5 8
M  V30 27 2 6 7
M  V30 28 1 24 25
M  V30 29 1 2 27
M  V30 30 1 3 28
M  V30 31 1 3 29
M  V30 32 1 5 30
M  V30 33 1 9 31
M  V30 34 1 10 32
M  V30 35 1 14 33
M  V30 36 1 14 34
M  V30 37 1 16 35
M  V30 38 1 21 36
M  V30 39 1 23 37
M  V30 40 1 26 38
M  V30 41 1 26 39
M  V30 END BOND
M  V30 BEGIN COLLECTION
M  V30 MDLV30/STEABS ATOMS=(2 2 5)
M  V30 END COLLECTION
M  V30 END CTAB
M  END
>  <level_0>
1100

>  <index>
1100

>  <NO.>
1101

>  <Name>
cefdinir

>  <SMILES>
C=CC1=C(C(=O)O)N2C(=O)[C@@H](NC(=O)/C(=N/O)c3csc(N)n3)[C@H]2SC1

>  <logBB>


>  <Class>
-1

>  <MW>
395.04

>  <nHBAcc>
9

>  <nHBDon>
4

>  <SLogP>
-0.17

>  <TopoPSA>
158.21

>  <MMFF94 Energy>
71.899

$$$$
C=CC1=C(C(=O)O)N2C(=O)[C@@H](NC(=O)/C(=N/OCC(=O)O)c3csc(N)n3)[C@H]2SC1
Actelion Java MolfileCreator 2.0

  0  0  0  0  0  0              0 V3000
M  V30 BEGIN CTAB
M  V30 COUNTS 45 47 0 0 0
M  V30 BEGIN ATOM
M  V30 1 S -1.4829 1.318 -1.7302 0
M  V30 2 C 0.2318 1.4858 -2.2778 0 CFG=1
M  V30 3 C -1.8881 3.0554 -2.1285 0
M  V30 4 N 0.8557 2.483 -1.4454 0
M  V30 5 C 1.2809 0.4784 -1.7166 0 CFG=1
M  V30 6 C -0.8889 4.082 -1.5998 0
M  V30 7 C 0.3773 3.7387 -1.2516 0
M  V30 8 C 1.9509 1.7713 -1.1091 0
M  V30 9 N 0.7978 -0.5133 -0.7226 0
M  V30 10 C -1.3916 5.4543 -1.4491 0
M  V30 11 C 1.2977 4.7033 -0.5978 0
M  V30 12 O 2.9656 2.0696 -0.5281 0
M  V30 13 C 1.5445 -1.617 -0.3712 0
M  V30 14 C -2.5688 5.9332 -1.8751 0
M  V30 15 O 1.8479 5.6493 -1.1311 0
M  V30 16 O 1.4443 4.4171 0.7075 0
M  V30 17 O 2.6394 -1.9026 -0.8307 0
M  V30 18 C 0.8957 -2.4892 0.7005 0
M  V30 19 N 0.6833 -1.8965 1.8458 0
M  V30 20 C 0.5347 -3.8607 0.3502 0
M  V30 21 O 0.0114 -2.7015 2.7756 0
M  V30 22 N 0.1645 -4.1628 -0.9619 0
M  V30 23 C 0.5375 -4.9578 1.1934 0
M  V30 24 C -0.1378 -1.9779 3.9927 0
M  V30 25 C -0.1062 -5.4373 -1.0854 0
M  V30 26 S 0.0589 -6.366 0.3448 0
M  V30 27 C -0.7165 -2.8894 5.0514 0
M  V30 28 N -0.4853 -5.995 -2.2383 0
M  V30 29 O -0.9744 -4.0785 4.9548 0
M  V30 30 O -0.9414 -2.2435 6.2172 0
M  V30 31 H 0.351 1.6858 -3.3497 0
M  V30 32 H -2.8755 3.2152 -1.6834 0
M  V30 33 H -1.9836 3.1561 -3.2154 0
M  V30 34 H 1.882 0.01 -2.5045 0
M  V30 35 H -0.0836 -0.3647 -0.238 0
M  V30 36 H -0.7379 6.1766 -0.9586 0
M  V30 37 H -3.3108 5.3423 -2.3993 0
M  V30 38 H -2.8182 6.9788 -1.7096 0
M  V30 39 H 2.1455 5.0278 1.0135 0
M  V30 40 H 0.7959 -5.0088 2.2416 0
M  V30 41 H -0.8233 -1.1399 3.8307 0
M  V30 42 H 0.8399 -1.6238 4.3357 0
M  V30 43 H -0.6801 -6.9831 -2.3192 0
M  V30 44 H -0.5564 -5.4281 -3.0726 0
M  V30 45 H -1.304 -2.9389 6.8064 0
M  V30 END ATOM
M  V30 BEGIN BOND
M  V30 1 1 1 2
M  V30 2 1 1 3
M  V30 3 1 2 4
M  V30 4 1 2 5
M  V30 5 1 3 6
M  V30 6 1 4 7
M  V30 7 1 4 8
M  V30 8 1 5 9
M  V30 9 1 6 10
M  V30 10 1 7 11
M  V30 11 2 8 12
M  V30 12 1 9 13
M  V30 13 2 10 14
M  V30 14 2 11 15
M  V30 15 1 11 16
M  V30 16 2 13 17
M  V30 17 1 13 18
M  V30 18 2 18 19
M  V30 19 1 18 20
M  V30 20 1 19 21
M  V30 21 1 20 22
M  V30 22 2 20 23
M  V30 23 1 21 24
M  V30 24 2 22 25
M  V30 25 1 23 26
M  V30 26 1 24 27
M  V30 27 1 25 28
M  V30 28 2 27 29
M  V30 29 1 27 30
M  V30 30 1 5 8
M  V30 31 2 6 7
M  V30 32 1 25 26
M  V30 33 1 2 31
M  V30 34 1 3 32
M  V30 35 1 3 33
M  V30 36 1 5 34
M  V30 37 1 9 35
M  V30 38 1 10 36
M  V30 39 1 14 37
M  V30 40 1 14 38
M  V30 41 1 16 39
M  V30 42 1 23 40
M  V30 43 1 24 41
M  V30 44 1 24 42
M  V30 45 1 28 43
M  V30 46 1 28 44
M  V30 47 1 30 45
M  V30 END BOND
M  V30 BEGIN COLLECTION
M  V30 MDLV30/STEABS ATOMS=(2 2 5)
M  V30 END COLLECTION
M  V30 END CTAB
M  END
>  <level_0>
1101

>  <index>
1101

>  <NO.>
1102

>  <Name>
cefixime

>  <SMILES>
C=CC1=C(C(=O)O)N2C(=O)[C@@H](NC(=O)/C(=N/OCC(=O)O)c3csc(N)n3)[C@H]2SC1

>  <logBB>


>  <Class>
-1

>  <MW>
453.04

>  <nHBAcc>
10

>  <nHBDon>
4

>  <SLogP>
-0.54

>  <TopoPSA>
184.51

>  <MMFF94 Energy>
70.351

$$$$
C=CCC1(CC(C)O)C(=O)NC(=O)NC1=O
Actelion Java MolfileCreator 2.0

  0  0  0  0  0  0              0 V3000
M  V30 BEGIN CTAB
M  V30 COUNTS 30 30 0 0 0
M  V30 BEGIN ATOM
M  V30 1 O -1.0985 2.7481 3.2198 0
M  V30 2 C -0.8697 1.934 2.3312 0
M  V30 3 N -1.4584 2.0314 1.1123 0
M  V30 4 N -0.0028 0.9067 2.511 0
M  V30 5 C -1.2474 1.2095 0.0447 0
M  V30 6 C 0.3513 -0.031 1.5831 0
M  V30 7 O -1.7623 1.478 -1.0416 0
M  V30 8 C -0.441 -0.0561 0.2819 0
M  V30 9 O 1.2246 -0.8529 1.8634 0
M  V30 10 C -1.5019 -1.1908 0.4082 0
M  V30 11 C 0.5094 -0.2981 -0.9192 0
M  V30 12 C -0.9717 -2.6019 0.3795 0
M  V30 13 C 1.3334 0.9296 -1.3443 0 CFG=1
M  V30 14 C -1.2983 -3.5055 -0.553 0
M  V30 15 O 1.7927 1.629 -0.1927 0
M  V30 16 C 2.5205 0.5253 -2.2101 0
M  V30 17 H -2.0504 2.8355 0.9612 0
M  V30 18 H 0.4885 0.8762 3.3926 0
M  V30 19 H -2.2529 -1.0781 -0.3865 0
M  V30 20 H -2.0569 -1.0701 1.3493 0
M  V30 21 H 1.202 -1.1128 -0.6696 0
M  V30 22 H -0.06 -0.6415 -1.7933 0
M  V30 23 H -0.2892 -2.8976 1.1758 0
M  V30 24 H 0.7039 1.6207 -1.915 0
M  V30 25 H -1.9766 -3.272 -1.3678 0
M  V30 26 H -0.8861 -4.5098 -0.5182 0
M  V30 27 H 2.4322 2.3006 -0.4923 0
M  V30 28 H 3.0784 1.4109 -2.533 0
M  V30 29 H 2.1951 -0.0231 -3.0991 0
M  V30 30 H 3.2224 -0.0984 -1.6461 0
M  V30 END ATOM
M  V30 BEGIN BOND
M  V30 1 2 1 2
M  V30 2 1 2 3
M  V30 3 1 2 4
M  V30 4 1 3 5
M  V30 5 1 4 6
M  V30 6 2 5 7
M  V30 7 1 5 8
M  V30 8 2 6 9
M  V30 9 1 8 10
M  V30 10 1 8 11
M  V30 11 1 10 12
M  V30 12 1 11 13
M  V30 13 2 12 14
M  V30 14 1 13 15
M  V30 15 1 13 16
M  V30 16 1 6 8
M  V30 17 1 3 17
M  V30 18 1 4 18
M  V30 19 1 10 19
M  V30 20 1 10 20
M  V30 21 1 11 21
M  V30 22 1 11 22
M  V30 23 1 12 23
M  V30 24 1 13 24
M  V30 25 1 14 25
M  V30 26 1 14 26
M  V30 27 1 15 27
M  V30 28 1 16 28
M  V30 29 1 16 29
M  V30 30 1 16 30
M  V30 END BOND
M  V30 BEGIN COLLECTION
M  V30 MDLV30/STERAC1 ATOMS=(1 13)
M  V30 END COLLECTION
M  V30 END CTAB
M  END
>  <level_0>
1113

>  <index>
1113

>  <NO.>
1114

>  <Name>
proxibarbal

>  <SMILES>
C=CCC1(CC(C)O)C(=O)NC(=O)NC1=O

>  <logBB>


>  <Class>
1

>  <MW>
226.1

>  <nHBAcc>
4

>  <nHBDon>
3

>  <SLogP>
-0.31

>  <TopoPSA>
95.5

>  <MMFF94 Energy>
-128.46

$$$$
C=CC[C@@H]1/C=C(\C)C[C@H](C)C[C@H](OC)[C@H]2O[C@@](O)(C(=O)C(=O)N3CCCC[C@H]3C(=O)O[C@H](/C(C)=C/[C@@H]3CC[C@@H](O)[C@H](OC)C3)[C@H](C)[C@@H](O)CC1=O)[C@H](C)C[C@@H]2OC
Actelion Java MolfileCreator 2.0

  0  0  0  0  0  0              0 V3000
M  V30 BEGIN CTAB
M  V30 COUNTS 126 129 0 0 0
M  V30 BEGIN ATOM
M  V30 1 O 4.2924 2.6214 0.3968 0
M  V30 2 C 3.266 2.3668 -0.2272 0
M  V30 3 N 2.7016 3.2173 -1.1842 0
M  V30 4 C 2.5131 1.1407 0.2139 0
M  V30 5 C 1.6176 2.9138 -2.1486 0 CFG=2
M  V30 6 C 3.4757 4.4016 -1.5507 0
M  V30 7 O 1.4994 1.359 0.8826 0
M  V30 8 C 3.0646 -0.2604 -0.2054 0 CFG=1
M  V30 9 C 0.5555 1.8623 -1.8116 0
M  V30 10 C 2.2568 2.5985 -3.5119 0
M  V30 11 C 4.1604 4.1655 -2.8978 0
M  V30 12 O 2.0878 -1.1565 0.3512 0
M  V30 13 O 3.0588 -0.4545 -1.6055 0
M  V30 14 C 4.4899 -0.5177 0.3601 0 CFG=1
M  V30 15 O 0.7203 0.6592 -1.9865 0
M  V30 16 O -0.5304 2.4389 -1.2324 0
M  V30 17 C 3.1497 3.7567 -3.9745 0
M  V30 18 C 2.4092 -2.5501 0.3242 0 CFG=2
M  V30 19 C 4.8015 -2.0072 0.593 0
M  V30 20 C 5.6187 0.0171 -0.5424 0
M  V30 21 C -1.5558 1.5409 -0.7635 0 CFG=2
M  V30 22 C 1.1429 -3.3779 0.7182 0 CFG=1
M  V30 23 C 3.6439 -2.7886 1.2067 0 CFG=2
M  V30 24 C -2.4626 1.1257 -1.926 0
M  V30 25 C -2.3395 2.1771 0.4271 0 CFG=1
M  V30 26 O 1.3136 -4.7974 0.551 0
M  V30 27 C 0.6675 -3.2041 2.1808 0
M  V30 28 O 4.0003 -4.1695 1.2292 0
M  V30 29 C -3.0161 -0.1064 -1.9231 0
M  V30 30 C -2.6497 2.1108 -3.0502 0
M  V30 31 C -1.433 2.2764 1.6891 0 CFG=1
M  V30 32 C -2.9544 3.536 0.0568 0
M  V30 33 C 1.4243 -5.2177 -0.8007 0
M  V30 34 C 0.0256 -1.8478 2.5409 0 CFG=2
M  V30 35 C 4.653 -4.5617 2.4283 0
M  V30 36 C -3.8696 -0.7415 -2.9963 0 CFG=1
M  V30 37 O -0.5051 3.3437 1.5495 0
M  V30 38 C -2.2434 2.4374 2.9782 0
M  V30 39 C -0.2216 -1.7735 4.0688 0
M  V30 40 C -1.2896 -1.6462 1.7794 0
M  V30 41 C -3.2732 -2.0898 -3.4143 0
M  V30 42 C -5.3014 -0.9329 -2.4857 0
M  V30 43 C -1.4884 2.8991 4.2155 0
M  V30 44 C -0.6045 -0.4166 4.6562 0
M  V30 45 C -4.1175 -2.8094 -4.4746 0 CFG=1
M  V30 46 C -6.1704 -1.5962 -3.5449 0
M  V30 47 O -1.9178 3.883 4.8368 0
M  V30 48 C -0.266 2.1389 4.7603 0 CFG=1
M  V30 49 C -0.0783 0.7418 4.2047 0
M  V30 50 C -1.5722 -0.503 5.8089 0
M  V30 51 O -3.4778 -4.0825 -4.6635 0
M  V30 52 C -5.5951 -2.929 -4.0284 0 CFG=1
M  V30 53 C 1.0223 2.9748 4.5724 0
M  V30 54 C -4.0065 -4.8629 -5.7251 0
M  V30 55 O -6.4273 -3.3812 -5.1047 0
M  V30 56 C 1.1678 4.0878 5.5785 0
M  V30 57 C 2.164 4.1738 6.4693 0
M  V30 58 H 1.0575 3.8533 -2.27 0
M  V30 59 H 4.2256 4.6428 -0.7907 0
M  V30 60 H 2.7879 5.2533 -1.61 0
M  V30 61 H 2.8628 1.6867 -3.4404 0
M  V30 62 H 1.4832 2.4081 -4.2654 0
M  V30 63 H 4.6919 5.0707 -3.211 0
M  V30 64 H 4.9081 3.3694 -2.7915 0
M  V30 65 H 2.1149 -0.3603 -1.8621 0
M  V30 66 H 4.5581 -0.0244 1.3392 0
M  V30 67 H 2.5193 4.6199 -4.2219 0
M  V30 68 H 3.6784 3.474 -4.8915 0
M  V30 69 H 2.6558 -2.8237 -0.7085 0
M  V30 70 H 5.0778 -2.4897 -0.3554 0
M  V30 71 H 5.6934 -2.0986 1.2257 0
M  V30 72 H 5.7065 -0.5726 -1.4622 0
M  V30 73 H 6.5806 -0.0446 -0.021 0
M  V30 74 H 5.4798 1.0523 -0.8496 0
M  V30 75 H -1.068 0.6388 -0.37 0
M  V30 76 H 0.3204 -3.0712 0.0617 0
M  V30 77 H 3.4539 -2.4099 2.2195 0
M  V30 78 H -3.1629 1.4934 0.6774 0
M  V30 79 H -0.0585 -3.9992 2.405 0
M  V30 80 H 1.5082 -3.4091 2.8544 0
M  V30 81 H -2.8234 -0.7524 -1.0646 0
M  V30 82 H -1.8565 1.986 -3.7943 0
M  V30 83 H -2.6126 3.1439 -2.6942 0
M  V30 84 H -3.6176 1.9962 -3.5462 0
M  V30 85 H -0.8616 1.3507 1.7712 0
M  V30 86 H -2.2011 4.2382 -0.314 0
M  V30 87 H -3.7211 3.4185 -0.7148 0
M  V30 88 H -3.4517 4.0052 0.9097 0
M  V30 89 H 0.6066 -4.8148 -1.4057 0
M  V30 90 H 1.3642 -6.3094 -0.8218 0
M  V30 91 H 2.3898 -4.9273 -1.222 0
M  V30 92 H 0.7209 -1.0564 2.2621 0
M  V30 93 H 5.5798 -3.9997 2.5726 0
M  V30 94 H 4.8992 -5.6241 2.3525 0
M  V30 95 H 3.9894 -4.4204 3.2869 0
M  V30 96 H -3.9004 -0.1066 -3.8889 0
M  V30 97 H 0.3049 2.9475 1.1677 0
M  V30 98 H -3.0283 3.1872 2.8271 0
M  V30 99 H -2.7657 1.5046 3.2202 0
M  V30 100 H 0.6782 -2.1057 4.6036 0
M  V30 101 H -1.0043 -2.5036 4.3166 0
M  V30 102 H -1.9665 -2.4945 1.9287 0
M  V30 103 H -1.8157 -0.7464 2.1082 0
M  V30 104 H -1.1118 -1.5419 0.7059 0
M  V30 105 H -2.2547 -1.9503 -3.8018 0
M  V30 106 H -3.1609 -2.7461 -2.539 0
M  V30 107 H -5.3059 -1.5474 -1.5757 0
M  V30 108 H -5.7391 0.0361 -2.2154 0
M  V30 109 H -4.0567 -2.2551 -5.4203 0
M  V30 110 H -7.1823 -1.7553 -3.1523 0
M  V30 111 H -6.2918 -0.9146 -4.3974 0
M  V30 112 H -0.4377 2.038 5.8406 0
M  V30 113 H 0.6371 0.6987 3.3849 0
M  V30 114 H -1.1195 -1.0545 6.6393 0
M  V30 115 H -1.8877 0.4728 6.1855 0
M  V30 116 H -2.4807 -1.0294 5.4967 0
M  V30 117 H -5.6747 -3.6814 -3.2352 0
M  V30 118 H 1.9028 2.3215 4.6404 0
M  V30 119 H 1.0497 3.4215 3.5726 0
M  V30 120 H -4.9372 -5.3464 -5.4182 0
M  V30 121 H -3.2849 -5.6518 -5.9556 0
M  V30 122 H -4.1583 -4.2606 -6.6257 0
M  V30 123 H -6.3817 -2.7239 -5.8196 0
M  V30 124 H 0.409 4.8697 5.5597 0
M  V30 125 H 2.9475 3.4253 6.527 0
M  V30 126 H 2.2117 5.0062 7.1649 0
M  V30 END ATOM
M  V30 BEGIN BOND
M  V30 1 2 1 2
M  V30 2 1 2 3
M  V30 3 1 2 4
M  V30 4 1 3 5
M  V30 5 1 3 6
M  V30 6 2 4 7
M  V30 7 1 4 8
M  V30 8 1 5 9
M  V30 9 1 5 10
M  V30 10 1 6 11
M  V30 11 1 8 12
M  V30 12 1 8 13
M  V30 13 1 8 14
M  V30 14 2 9 15
M  V30 15 1 9 16
M  V30 16 1 10 17
M  V30 17 1 12 18
M  V30 18 1 14 19
M  V30 19 1 14 20
M  V30 20 1 16 21
M  V30 21 1 18 22
M  V30 22 1 18 23
M  V30 23 1 21 24
M  V30 24 1 21 25
M  V30 25 1 22 26
M  V30 26 1 22 27
M  V30 27 1 23 28
M  V30 28 2 24 29
M  V30 29 1 24 30
M  V30 30 1 25 31
M  V30 31 1 25 32
M  V30 32 1 26 33
M  V30 33 1 27 34
M  V30 34 1 28 35
M  V30 35 1 29 36
M  V30 36 1 31 37
M  V30 37 1 31 38
M  V30 38 1 34 39
M  V30 39 1 34 40
M  V30 40 1 36 41
M  V30 41 1 36 42
M  V30 42 1 38 43
M  V30 43 1 39 44
M  V30 44 1 41 45
M  V30 45 1 42 46
M  V30 46 2 43 47
M  V30 47 1 43 48
M  V30 48 2 44 49
M  V30 49 1 44 50
M  V30 50 1 45 51
M  V30 51 1 45 52
M  V30 52 1 48 53
M  V30 53 1 51 54
M  V30 54 1 52 55
M  V30 55 1 53 56
M  V30 56 2 56 57
M  V30 57 1 11 17
M  V30 58 1 19 23
M  V30 59 1 46 52
M  V30 60 1 48 49
M  V30 61 1 5 58
M  V30 62 1 6 59
M  V30 63 1 6 60
M  V30 64 1 10 61
M  V30 65 1 10 62
M  V30 66 1 11 63
M  V30 67 1 11 64
M  V30 68 1 13 65
M  V30 69 1 14 66
M  V30 70 1 17 67
M  V30 71 1 17 68
M  V30 72 1 18 69
M  V30 73 1 19 70
M  V30 74 1 19 71
M  V30 75 1 20 72
M  V30 76 1 20 73
M  V30 77 1 20 74
M  V30 78 1 21 75
M  V30 79 1 22 76
M  V30 80 1 23 77
M  V30 81 1 25 78
M  V30 82 1 27 79
M  V30 83 1 27 80
M  V30 84 1 29 81
M  V30 85 1 30 82
M  V30 86 1 30 83
M  V30 87 1 30 84
M  V30 88 1 31 85
M  V30 89 1 32 86
M  V30 90 1 32 87
M  V30 91 1 32 88
M  V30 92 1 33 89
M  V30 93 1 33 90
M  V30 94 1 33 91
M  V30 95 1 34 92
M  V30 96 1 35 93
M  V30 97 1 35 94
M  V30 98 1 35 95
M  V30 99 1 36 96
M  V30 100 1 37 97
M  V30 101 1 38 98
M  V30 102 1 38 99
M  V30 103 1 39 100
M  V30 104 1 39 101
M  V30 105 1 40 102
M  V30 106 1 40 103
M  V30 107 1 40 104
M  V30 108 1 41 105
M  V30 109 1 41 106
M  V30 110 1 42 107
M  V30 111 1 42 108
M  V30 112 1 45 109
M  V30 113 1 46 110
M  V30 114 1 46 111
M  V30 115 1 48 112
M  V30 116 1 49 113
M  V30 117 1 50 114
M  V30 118 1 50 115
M  V30 119 1 50 116
M  V30 120 1 52 117
M  V30 121 1 53 118
M  V30 122 1 53 119
M  V30 123 1 54 120
M  V30 124 1 54 121
M  V30 125 1 54 122
M  V30 126 1 55 123
M  V30 127 1 56 124
M  V30 128 1 57 125
M  V30 129 1 57 126
M  V30 END BOND
M  V30 BEGIN COLLECTION
M  V30 MDLV30/STEABS ATOMS=(14 5 8 14 18 21 22 23 25 31 34 36 45 48 52)
M  V30 END COLLECTION
M  V30 END CTAB
M  END
>  <level_0>
1125

>  <index>
1125

>  <NO.>
1126

>  <Name>
tacrolimus

>  <SMILES>
C=CC[C@@H]1/C=C(\C)C[C@H](C)C[C@H](OC)[C@H]2O[C@@](O)(C(=O)C(=O)N3CCCC[C@H]3C(=O)O[C@H](/C(C)=C/[C@@H]3CC[C@@H](O)[C@H](OC)C3)[C@H](C)[C@@H](O)CC1=O)[C@H](C)C[C@@H]2OC

>  <logBB>


>  <Class>
-1

>  <MW>
803.48

>  <nHBAcc>
12

>  <nHBDon>
3

>  <SLogP>
4.64

>  <TopoPSA>
178.36

>  <MMFF94 Energy>
263.9

$$$$
CC#C[C@]1(O)CC[C@H]2[C@@H]3CCC4=CC(=O)CCC4=C3[C@@H](c3ccc(N(C)C)cc3)C[C@@]21C
Actelion Java MolfileCreator 2.0

  0  0  0  0  0  0              0 V3000
M  V30 BEGIN CTAB
M  V30 COUNTS 67 71 0 0 0
M  V30 BEGIN ATOM
M  V30 1 O 4.0106 -2.6456 4.573 0
M  V30 2 C 3.27 -2.0995 3.7583 0
M  V30 3 C 3.2659 -0.6217 3.655 0
M  V30 4 C 2.4098 -2.8825 2.7999 0
M  V30 5 C 2.485 0.0107 2.7635 0
M  V30 6 C 1.1775 -2.0759 2.4175 0
M  V30 7 C 1.5536 -0.7047 1.8851 0
M  V30 8 C 2.5376 1.5061 2.6163 0
M  V30 9 C 1.0497 -0.125 0.7632 0
M  V30 10 C 2.6538 1.8569 1.1431 0
M  V30 11 C 0.0314 -0.834 -0.1595 0 CFG=1
M  V30 12 C 1.4489 1.3094 0.3568 0 CFG=1
M  V30 13 C -1.4279 -0.7268 0.2877 0
M  V30 14 C 0.2438 -0.5427 -1.6777 0
M  V30 15 C 1.7325 1.3733 -1.1469 0 CFG=1
M  V30 16 C -2.3919 -1.5504 -0.3067 0
M  V30 17 C -1.8668 0.1288 1.3014 0
M  V30 18 C 0.5366 0.9308 -2.0117 0 CFG=1
M  V30 19 C 2.1285 2.7208 -1.7503 0
M  V30 20 C -3.7402 -1.4971 0.0812 0
M  V30 21 C -3.2186 0.1743 1.6821 0
M  V30 22 C 1.0953 1.2291 -3.4397 0 CFG=2
M  V30 23 C -0.7503 1.7729 -1.7896 0
M  V30 24 C 1.8215 2.586 -3.2547 0
M  V30 25 C -4.1995 -0.6316 1.0848 0
M  V30 26 O 0.0572 1.3717 -4.3989 0
M  V30 27 C 2.0434 0.2137 -3.9475 0
M  V30 28 N -5.5354 -0.5795 1.4654 0
M  V30 29 C 2.8121 -0.6065 -4.3722 0
M  V30 30 C -6.5358 -1.42 0.8209 0
M  V30 31 C -5.9847 0.3272 2.5136 0
M  V30 32 C 3.7513 -1.6007 -4.8909 0
M  V30 33 H 3.9519 -0.1011 4.3127 0
M  V30 34 H 2.0987 -3.8119 3.2889 0
M  V30 35 H 3.0106 -3.1338 1.9191 0
M  V30 36 H 0.5842 -2.6698 1.7201 0
M  V30 37 H 0.5442 -1.9343 3.3048 0
M  V30 38 H 1.6304 1.9516 3.0439 0
M  V30 39 H 3.3901 1.9327 3.1582 0
M  V30 40 H 3.5922 1.451 0.7415 0
M  V30 41 H 2.7077 2.9466 1.0322 0
M  V30 42 H 0.246 -1.9088 -0.0936 0
M  V30 43 H 0.6015 1.9619 0.5995 0
M  V30 44 H 1.1016 -1.1573 -1.9809 0
M  V30 45 H -0.5965 -0.9016 -2.2834 0
M  V30 46 H 2.5769 0.6898 -1.3338 0
M  V30 47 H -2.1085 -2.2589 -1.0821 0
M  V30 48 H -1.1751 0.7848 1.8227 0
M  V30 49 H 1.5434 3.5406 -1.3179 0
M  V30 50 H 3.1866 2.9461 -1.5816 0
M  V30 51 H -4.4251 -2.1659 -0.4312 0
M  V30 52 H -3.4796 0.8706 2.4738 0
M  V30 53 H -0.6313 2.8127 -2.111 0
M  V30 54 H -1.5879 1.3555 -2.3607 0
M  V30 55 H -1.0624 1.8132 -0.7464 0
M  V30 56 H 1.1961 3.4257 -3.5815 0
M  V30 57 H 2.7478 2.6445 -3.8388 0
M  V30 58 H -0.3055 0.4832 -4.5534 0
M  V30 59 H -6.5938 -1.2048 -0.2517 0
M  V30 60 H -7.5376 -1.2532 1.2316 0
M  V30 61 H -6.3067 -2.4812 0.9674 0
M  V30 62 H -5.4862 0.1038 3.4633 0
M  V30 63 H -7.0618 0.2425 2.6951 0
M  V30 64 H -5.7912 1.3695 2.2373 0
M  V30 65 H 4.7506 -1.1698 -5.004 0
M  V30 66 H 3.825 -2.4563 -4.213 0
M  V30 67 H 3.4272 -1.9688 -5.8688 0
M  V30 END ATOM
M  V30 BEGIN BOND
M  V30 1 2 1 2
M  V30 2 1 2 3
M  V30 3 1 2 4
M  V30 4 2 3 5
M  V30 5 1 4 6
M  V30 6 1 5 7
M  V30 7 1 5 8
M  V30 8 2 7 9
M  V30 9 1 8 10
M  V30 10 1 9 11
M  V30 11 1 9 12
M  V30 12 1 11 13
M  V30 13 1 11 14
M  V30 14 1 12 15
M  V30 15 2 13 16
M  V30 16 1 13 17
M  V30 17 1 14 18
M  V30 18 1 15 19
M  V30 19 1 16 20
M  V30 20 2 17 21
M  V30 21 1 18 22
M  V30 22 1 18 23
M  V30 23 1 19 24
M  V30 24 2 20 25
M  V30 25 1 22 26
M  V30 26 1 22 27
M  V30 27 1 25 28
M  V30 28 3 27 29
M  V30 29 1 28 30
M  V30 30 1 28 31
M  V30 31 1 29 32
M  V30 32 1 6 7
M  V30 33 1 10 12
M  V30 34 1 15 18
M  V30 35 1 21 25
M  V30 36 1 22 24
M  V30 37 1 3 33
M  V30 38 1 4 34
M  V30 39 1 4 35
M  V30 40 1 6 36
M  V30 41 1 6 37
M  V30 42 1 8 38
M  V30 43 1 8 39
M  V30 44 1 10 40
M  V30 45 1 10 41
M  V30 46 1 11 42
M  V30 47 1 12 43
M  V30 48 1 14 44
M  V30 49 1 14 45
M  V30 50 1 15 46
M  V30 51 1 16 47
M  V30 52 1 17 48
M  V30 53 1 19 49
M  V30 54 1 19 50
M  V30 55 1 20 51
M  V30 56 1 21 52
M  V30 57 1 23 53
M  V30 58 1 23 54
M  V30 59 1 23 55
M  V30 60 1 24 56
M  V30 61 1 24 57
M  V30 62 1 26 58
M  V30 63 1 30 59
M  V30 64 1 30 60
M  V30 65 1 30 61
M  V30 66 1 31 62
M  V30 67 1 31 63
M  V30 68 1 31 64
M  V30 69 1 32 65
M  V30 70 1 32 66
M  V30 71 1 32 67
M  V30 END BOND
M  V30 BEGIN COLLECTION
M  V30 MDLV30/STEABS ATOMS=(5 11 12 15 18 22)
M  V30 END COLLECTION
M  V30 END CTAB
M  END
>  <level_0>
1130

>  <index>
1130

>  <NO.>
1131

>  <Name>
mifepristone

>  <SMILES>
CC#C[C@]1(O)CC[C@H]2[C@@H]3CCC4=CC(=O)CCC4=C3[C@@H](c3ccc(N(C)C)cc3)C[C@@]21C

>  <logBB>


>  <Class>
-1

>  <MW>
429.27

>  <nHBAcc>
3

>  <nHBDon>
1

>  <SLogP>
5.41

>  <TopoPSA>
40.54

>  <MMFF94 Energy>
78.73

$$$$
CC(=O)N1CCN(C(=O)Cc2ccc(S(C)(=O)=O)cc2)[C@@H](CN2CC[C@H](O)C2)C1
Actelion Java MolfileCreator 2.0

  0  0  0  0  0  0              0 V3000
M  V30 BEGIN CTAB
M  V30 COUNTS 58 60 0 0 0
M  V30 BEGIN ATOM
M  V30 1 S 0.3216 -5.7205 4.1872 0
M  V30 2 O -0.0273 -6.9607 3.5205 0
M  V30 3 O 1.6333 -5.536 4.7787 0
M  V30 4 C 0.0516 -4.3921 3.0397 0
M  V30 5 C -0.8924 -5.4161 5.444 0
M  V30 6 C -0.8301 -4.5716 1.9718 0
M  V30 7 C 0.7496 -3.1931 3.1975 0
M  V30 8 C -1.0378 -3.5268 1.0698 0
M  V30 9 C 0.5375 -2.1523 2.2925 0
M  V30 10 C -0.3656 -2.3056 1.2289 0
M  V30 11 C -0.5798 -1.1759 0.2448 0
M  V30 12 C 0.3841 -1.1692 -0.9354 0
M  V30 13 O 1.2368 -2.0485 -1.0747 0
M  V30 14 N 0.2361 -0.1534 -1.8776 0
M  V30 15 C -0.6674 1.0273 -1.7539 0 CFG=2
M  V30 16 C 1.1487 -0.1443 -3.0345 0
M  V30 17 C -1.3773 1.3047 -3.1037 0
M  V30 18 C 0.0948 2.3021 -1.2812 0
M  V30 19 C 0.4177 0.1636 -4.3467 0
M  V30 20 N -0.4316 1.3525 -4.2227 0
M  V30 21 N 0.5592 2.2042 0.1094 0
M  V30 22 C -0.306 2.3803 -5.1398 0
M  V30 23 C 1.7102 3.0806 0.3784 0
M  V30 24 C -0.452 2.6237 1.0874 0
M  V30 25 O 0.5253 2.364 -6.0467 0
M  V30 26 C -1.2333 3.5588 -4.989 0
M  V30 27 C 1.689 3.3111 1.8973 0 CFG=2
M  V30 28 C 0.3667 2.7142 2.3641 0
M  V30 29 O 1.6977 4.7044 2.2004 0
M  V30 30 H -1.8873 -5.4529 4.996 0
M  V30 31 H -0.7046 -4.4389 5.8931 0
M  V30 32 H -0.7982 -6.1966 6.2022 0
M  V30 33 H -1.345 -5.5185 1.8247 0
M  V30 34 H 1.4667 -3.0648 4.0053 0
M  V30 35 H -1.7135 -3.6772 0.2304 0
M  V30 36 H 1.095 -1.2245 2.408 0
M  V30 37 H -1.6048 -1.2323 -0.1409 0
M  V30 38 H -0.4889 -0.2342 0.7896 0
M  V30 39 H -1.4539 0.8109 -1.0251 0
M  V30 40 H 1.6726 -1.0999 -3.1351 0
M  V30 41 H 1.9108 0.6181 -2.8382 0
M  V30 42 H -2.0698 0.4821 -3.323 0
M  V30 43 H -1.9776 2.2147 -3.0351 0
M  V30 44 H -0.5369 3.1909 -1.4091 0
M  V30 45 H 0.9591 2.4519 -1.94 0
M  V30 46 H 1.1439 0.2718 -5.1579 0
M  V30 47 H -0.245 -0.6703 -4.6076 0
M  V30 48 H 1.6348 4.0361 -0.1565 0
M  V30 49 H 2.6376 2.5856 0.0723 0
M  V30 50 H -0.878 3.6051 0.8414 0
M  V30 51 H -1.2694 1.9041 1.1861 0
M  V30 52 H -2.2742 3.2322 -5.0595 0
M  V30 53 H -1.054 4.0584 -4.0333 0
M  V30 54 H -1.0445 4.2763 -5.7933 0
M  V30 55 H 2.5332 2.836 2.4076 0
M  V30 56 H -0.1365 3.3151 3.1279 0
M  V30 57 H 0.5341 1.7062 2.7641 0
M  V30 58 H 2.57 5.05 1.9426 0
M  V30 END ATOM
M  V30 BEGIN BOND
M  V30 1 2 1 2
M  V30 2 2 1 3
M  V30 3 1 1 4
M  V30 4 1 1 5
M  V30 5 2 4 6
M  V30 6 1 4 7
M  V30 7 1 6 8
M  V30 8 2 7 9
M  V30 9 2 8 10
M  V30 10 1 10 11
M  V30 11 1 11 12
M  V30 12 2 12 13
M  V30 13 1 12 14
M  V30 14 1 14 15
M  V30 15 1 14 16
M  V30 16 1 15 17
M  V30 17 1 15 18
M  V30 18 1 16 19
M  V30 19 1 17 20
M  V30 20 1 18 21
M  V30 21 1 20 22
M  V30 22 1 21 23
M  V30 23 1 21 24
M  V30 24 2 22 25
M  V30 25 1 22 26
M  V30 26 1 23 27
M  V30 27 1 24 28
M  V30 28 1 27 29
M  V30 29 1 9 10
M  V30 30 1 19 20
M  V30 31 1 27 28
M  V30 32 1 5 30
M  V30 33 1 5 31
M  V30 34 1 5 32
M  V30 35 1 6 33
M  V30 36 1 7 34
M  V30 37 1 8 35
M  V30 38 1 9 36
M  V30 39 1 11 37
M  V30 40 1 11 38
M  V30 41 1 15 39
M  V30 42 1 16 40
M  V30 43 1 16 41
M  V30 44 1 17 42
M  V30 45 1 17 43
M  V30 46 1 18 44
M  V30 47 1 18 45
M  V30 48 1 19 46
M  V30 49 1 19 47
M  V30 50 1 23 48
M  V30 51 1 23 49
M  V30 52 1 24 50
M  V30 53 1 24 51
M  V30 54 1 26 52
M  V30 55 1 26 53
M  V30 56 1 26 54
M  V30 57 1 27 55
M  V30 58 1 28 56
M  V30 59 1 28 57
M  V30 60 1 29 58
M  V30 END BOND
M  V30 BEGIN COLLECTION
M  V30 MDLV30/STEABS ATOMS=(2 15 27)
M  V30 END COLLECTION
M  V30 END CTAB
M  END
>  <level_0>
1140

>  <index>
1140

>  <NO.>
1141

>  <Name>
gr94839_l

>  <SMILES>
CC(=O)N1CCN(C(=O)Cc2ccc(S(C)(=O)=O)cc2)[C@@H](CN2CC[C@H](O)C2)C1

>  <logBB>


>  <Class>
-1

>  <MW>
423.18

>  <nHBAcc>
6

>  <nHBDon>
1

>  <SLogP>
-0.24

>  <TopoPSA>
98.23

>  <MMFF94 Energy>
131.12

$$$$
CC(=O)NC(CCC(N)=O)C(=O)O
Actelion Java MolfileCreator 2.0

  0  0  0  0  0  0              0 V3000
M  V30 BEGIN CTAB
M  V30 COUNTS 25 24 0 0 0
M  V30 BEGIN ATOM
M  V30 1 O -0.5402 -1.1579 -2.8582 0
M  V30 2 C -0.1691 -1.1442 -1.6926 0
M  V30 3 O 1.0941 -1.5076 -1.3899 0
M  V30 4 C -1.0059 -0.6629 -0.4995 0 CFG=1
M  V30 5 N -0.3383 -0.8291 0.7848 0
M  V30 6 C -1.4837 0.7859 -0.7075 0
M  V30 7 C -0.3094 -2.0365 1.4351 0
M  V30 8 C -0.4156 1.8088 -1.1133 0
M  V30 9 O -0.8509 -3.0506 1.0074 0
M  V30 10 C 0.4792 -2.018 2.7154 0
M  V30 11 C 0.5817 2.1574 -0.0297 0
M  V30 12 O 0.6095 1.649 1.0846 0
M  V30 13 N 1.4938 3.1028 -0.392 0
M  V30 14 H 1.4592 -1.8399 -2.2349 0
M  V30 15 H -1.889 -1.3145 -0.4757 0
M  V30 16 H 0.194 -0.0447 1.1633 0
M  V30 17 H -2.2362 0.7772 -1.5075 0
M  V30 18 H -1.9974 1.1335 0.1981 0
M  V30 19 H 0.1344 1.4752 -1.9997 0
M  V30 20 H -0.9242 2.7414 -1.3902 0
M  V30 21 H 1.5328 -2.2036 2.4909 0
M  V30 22 H 0.1058 -2.7979 3.3846 0
M  V30 23 H 0.3816 -1.0523 3.2198 0
M  V30 24 H 2.1906 3.379 0.288 0
M  V30 25 H 1.505 3.543 -1.3018 0
M  V30 END ATOM
M  V30 BEGIN BOND
M  V30 1 2 1 2
M  V30 2 1 2 3
M  V30 3 1 2 4
M  V30 4 1 4 5
M  V30 5 1 4 6
M  V30 6 1 5 7
M  V30 7 1 6 8
M  V30 8 2 7 9
M  V30 9 1 7 10
M  V30 10 1 8 11
M  V30 11 2 11 12
M  V30 12 1 11 13
M  V30 13 1 3 14
M  V30 14 1 4 15
M  V30 15 1 5 16
M  V30 16 1 6 17
M  V30 17 1 6 18
M  V30 18 1 8 19
M  V30 19 1 8 20
M  V30 20 1 10 21
M  V30 21 1 10 22
M  V30 22 1 10 23
M  V30 23 1 13 24
M  V30 24 1 13 25
M  V30 END BOND
M  V30 BEGIN COLLECTION
M  V30 MDLV30/STERAC1 ATOMS=(1 4)
M  V30 END COLLECTION
M  V30 END CTAB
M  END
>  <level_0>
1145

>  <index>
1145

>  <NO.>
1146

>  <Name>
aceglutamide

>  <SMILES>
CC(=O)NC(CCC(N)=O)C(=O)O

>  <logBB>


>  <Class>
1

>  <MW>
188.08

>  <nHBAcc>
3

>  <nHBDon>
3

>  <SLogP>
-1.16

>  <TopoPSA>
109.49

>  <MMFF94 Energy>
-51.363

$$$$
CC(=O)NCCC[C@H](NC(C)=O)C(=O)O
Actelion Java MolfileCreator 2.0

  0  0  0  0  0  0              0 V3000
M  V30 BEGIN CTAB
M  V30 COUNTS 31 30 0 0 0
M  V30 BEGIN ATOM
M  V30 1 O -1.4683 0.7725 2.3965 0
M  V30 2 C -1.5806 1.4798 1.4087 0
M  V30 3 O -1.8445 2.8013 1.5598 0
M  V30 4 C -1.4204 1.0471 -0.055 0 CFG=1
M  V30 5 N -1.7813 2.1678 -0.9288 0
M  V30 6 C 0.02 0.5981 -0.3396 0
M  V30 7 C -2.1333 1.9941 -2.2422 0
M  V30 8 C 0.3425 -0.7821 0.2385 0
M  V30 9 O -2.1346 0.9033 -2.8024 0
M  V30 10 C -2.4855 3.27 -2.9565 0
M  V30 11 C 1.7188 -1.2616 -0.2192 0
M  V30 12 N 2.0446 -2.549 0.3569 0
M  V30 13 C 2.6899 -2.6618 1.5675 0
M  V30 14 O 3.0633 -1.7048 2.2369 0
M  V30 15 C 2.933 -4.0849 1.9908 0
M  V30 16 H -1.8954 2.9078 2.5349 0
M  V30 17 H -2.1373 0.241 -0.2494 0
M  V30 18 H -1.8345 3.0841 -0.4937 0
M  V30 19 H 0.1889 0.5652 -1.4233 0
M  V30 20 H 0.7284 1.3359 0.0595 0
M  V30 21 H 0.3126 -0.7506 1.3333 0
M  V30 22 H -0.4173 -1.5076 -0.0776 0
M  V30 23 H -2.9088 4.0047 -2.2656 0
M  V30 24 H -3.2261 3.0584 -3.7327 0
M  V30 25 H -1.5839 3.6845 -3.415 0
M  V30 26 H 1.74 -1.3824 -1.3075 0
M  V30 27 H 2.4909 -0.5353 0.0578 0
M  V30 28 H 1.7714 -3.3854 -0.1421 0
M  V30 29 H 2.0965 -4.726 1.6981 0
M  V30 30 H 3.039 -4.1288 3.0784 0
M  V30 31 H 3.8503 -4.4488 1.5205 0
M  V30 END ATOM
M  V30 BEGIN BOND
M  V30 1 2 1 2
M  V30 2 1 2 3
M  V30 3 1 2 4
M  V30 4 1 4 5
M  V30 5 1 4 6
M  V30 6 1 5 7
M  V30 7 1 6 8
M  V30 8 2 7 9
M  V30 9 1 7 10
M  V30 10 1 8 11
M  V30 11 1 11 12
M  V30 12 1 12 13
M  V30 13 2 13 14
M  V30 14 1 13 15
M  V30 15 1 3 16
M  V30 16 1 4 17
M  V30 17 1 5 18
M  V30 18 1 6 19
M  V30 19 1 6 20
M  V30 20 1 8 21
M  V30 21 1 8 22
M  V30 22 1 10 23
M  V30 23 1 10 24
M  V30 24 1 10 25
M  V30 25 1 11 26
M  V30 26 1 11 27
M  V30 27 1 12 28
M  V30 28 1 15 29
M  V30 29 1 15 30
M  V30 30 1 15 31
M  V30 END BOND
M  V30 BEGIN COLLECTION
M  V30 MDLV30/STEABS ATOMS=(1 4)
M  V30 END COLLECTION
M  V30 END CTAB
M  END
>  <level_0>
1148

>  <index>
1148

>  <NO.>
1149

>  <Name>
bisorcic

>  <SMILES>
CC(=O)NCCC[C@H](NC(C)=O)C(=O)O

>  <logBB>


>  <Class>
1

>  <MW>
216.11

>  <nHBAcc>
3

>  <nHBDon>
3

>  <SLogP>
-0.51

>  <TopoPSA>
95.5

>  <MMFF94 Energy>
-40.707

$$$$
CC(=O)OC1CC[C@@]2(C)C([C@@H]1Br)[C@H](Br)C[C@@H]1[C@@H]2CC[C@@]2(C)[C@H]1CC[C@@H]2[C@H](C)CCCC(C)C
Actelion Java MolfileCreator 2.0

  0  0  0  0  0  0              0 V3000
M  V30 BEGIN CTAB
M  V30 COUNTS 81 84 0 0 0
M  V30 BEGIN ATOM
M  V30 1 Br 4.119 -1.6945 5.3329 0
M  V30 2 C 2.4758 -2.2458 4.3849 0 CFG=1
M  V30 3 C 1.9858 -1.16 3.3946 0
M  V30 4 C 2.7784 -3.5841 3.6799 0
M  V30 5 C 0.7127 -1.6386 2.5852 0 CFG=1
M  V30 6 C 1.8803 0.2747 3.9514 0 CFG=2
M  V30 7 O 3.8703 -3.3968 2.7466 0
M  V30 8 C 1.5598 -4.0633 2.8913 0
M  V30 9 C 0.3931 -0.5583 1.4842 0 CFG=2
M  V30 10 C 1.0637 -2.9987 1.9064 0
M  V30 11 C -0.5318 -1.889 3.4756 0
M  V30 12 Br 0.7723 0.4344 5.5516 0
M  V30 13 C 1.4353 1.2881 2.8974 0
M  V30 14 C 4.6296 -4.4942 2.4803 0
M  V30 15 C 0.197 0.8614 2.0962 0 CFG=1
M  V30 16 C -0.7742 -0.9417 0.5384 0
M  V30 17 O 4.4426 -5.6153 2.9293 0
M  V30 18 C 5.7351 -4.1315 1.5374 0
M  V30 19 C -0.0953 1.8552 0.9613 0 CFG=1
M  V30 20 C -1.1002 0.138 -0.5088 0
M  V30 21 C -1.3633 1.5105 0.1335 0 CFG=2
M  V30 22 C -0.2843 3.3229 1.3199 0
M  V30 23 C -1.3622 2.7332 -0.8374 0 CFG=2
M  V30 24 C -2.65 1.4443 0.9833 0
M  V30 25 C -0.9621 3.9253 0.0807 0
M  V30 26 C -2.5477 3.0657 -1.7895 0 CFG=1
M  V30 27 C -2.8617 1.9749 -2.8371 0
M  V30 28 C -3.8658 3.4831 -1.1215 0
M  V30 29 C -1.699 1.6593 -3.7841 0
M  V30 30 C -2.1184 0.6401 -4.8492 0
M  V30 31 C -0.9562 0.1806 -5.7488 0
M  V30 32 C -1.4322 -0.9365 -6.6805 0
M  V30 33 C -0.3681 1.3257 -6.5743 0
M  V30 34 H 1.7515 -2.4109 5.1879 0
M  V30 35 H 2.7846 -1.0748 2.639 0
M  V30 36 H 3.0553 -4.3323 4.434 0
M  V30 37 H 2.8596 0.6112 4.3067 0
M  V30 38 H 0.7576 -4.3454 3.582 0
M  V30 39 H 1.8119 -4.9637 2.3189 0
M  V30 40 H 1.2841 -0.4994 0.8391 0
M  V30 41 H 0.19 -3.4095 1.3869 0
M  V30 42 H 1.829 -2.838 1.136 0
M  V30 43 H -1.29 -2.4705 2.938 0
M  V30 44 H -1.0263 -0.9693 3.7911 0
M  V30 45 H -0.2943 -2.4566 4.3792 0
M  V30 46 H 1.2606 2.2648 3.3654 0
M  V30 47 H 2.2697 1.4337 2.1975 0
M  V30 48 H -0.6528 0.861 2.7837 0
M  V30 49 H -0.5248 -1.8584 -0.007 0
M  V30 50 H -1.6777 -1.1638 1.1149 0
M  V30 51 H 5.3148 -3.7866 0.5895 0
M  V30 52 H 6.3643 -3.3576 1.9842 0
M  V30 53 H 6.3525 -5.0138 1.3462 0
M  V30 54 H 0.7761 1.8181 0.2857 0
M  V30 55 H -1.9636 -0.1963 -1.0914 0
M  V30 56 H -0.257 0.2042 -1.2075 0
M  V30 57 H 0.6659 3.8229 1.5324 0
M  V30 58 H -0.9253 3.4395 2.2011 0
M  V30 59 H -0.4945 2.5951 -1.5005 0
M  V30 60 H -2.9434 2.4222 1.3765 0
M  V30 61 H -3.4822 1.0531 0.39 0
M  V30 62 H -2.5587 0.7775 1.8446 0
M  V30 63 H -0.2716 4.5886 -0.4532 0
M  V30 64 H -1.8078 4.5388 0.3987 0
M  V30 65 H -2.2222 3.9515 -2.3557 0
M  V30 66 H -3.7076 2.3159 -3.4498 0
M  V30 67 H -3.2055 1.0623 -2.34 0
M  V30 68 H -3.7276 4.2191 -0.3276 0
M  V30 69 H -4.5258 3.9472 -1.8646 0
M  V30 70 H -4.4137 2.6308 -0.714 0
M  V30 71 H -0.8474 1.2582 -3.2281 0
M  V30 72 H -1.3696 2.5881 -4.2625 0
M  V30 73 H -2.5429 -0.2382 -4.3458 0
M  V30 74 H -2.9196 1.0664 -5.4663 0
M  V30 75 H -0.1604 -0.2286 -5.1136 0
M  V30 76 H -1.8183 -1.785 -6.1057 0
M  V30 77 H -2.2287 -0.5867 -7.3461 0
M  V30 78 H -0.608 -1.3033 -7.3014 0
M  V30 79 H 0.0966 2.0812 -5.9337 0
M  V30 80 H -1.1388 1.8165 -7.1781 0
M  V30 81 H 0.4079 0.956 -7.253 0
M  V30 END ATOM
M  V30 BEGIN BOND
M  V30 1 1 1 2
M  V30 2 1 2 3
M  V30 3 1 2 4
M  V30 4 1 3 5
M  V30 5 1 3 6
M  V30 6 1 4 7
M  V30 7 1 4 8
M  V30 8 1 5 9
M  V30 9 1 5 10
M  V30 10 1 5 11
M  V30 11 1 6 12
M  V30 12 1 6 13
M  V30 13 1 7 14
M  V30 14 1 9 15
M  V30 15 1 9 16
M  V30 16 2 14 17
M  V30 17 1 14 18
M  V30 18 1 15 19
M  V30 19 1 16 20
M  V30 20 1 19 21
M  V30 21 1 19 22
M  V30 22 1 21 23
M  V30 23 1 21 24
M  V30 24 1 22 25
M  V30 25 1 23 26
M  V30 26 1 26 27
M  V30 27 1 26 28
M  V30 28 1 27 29
M  V30 29 1 29 30
M  V30 30 1 30 31
M  V30 31 1 31 32
M  V30 32 1 31 33
M  V30 33 1 8 10
M  V30 34 1 13 15
M  V30 35 1 20 21
M  V30 36 1 23 25
M  V30 37 1 2 34
M  V30 38 1 3 35
M  V30 39 1 4 36
M  V30 40 1 6 37
M  V30 41 1 8 38
M  V30 42 1 8 39
M  V30 43 1 9 40
M  V30 44 1 10 41
M  V30 45 1 10 42
M  V30 46 1 11 43
M  V30 47 1 11 44
M  V30 48 1 11 45
M  V30 49 1 13 46
M  V30 50 1 13 47
M  V30 51 1 15 48
M  V30 52 1 16 49
M  V30 53 1 16 50
M  V30 54 1 18 51
M  V30 55 1 18 52
M  V30 56 1 18 53
M  V30 57 1 19 54
M  V30 58 1 20 55
M  V30 59 1 20 56
M  V30 60 1 22 57
M  V30 61 1 22 58
M  V30 62 1 23 59
M  V30 63 1 24 60
M  V30 64 1 24 61
M  V30 65 1 24 62
M  V30 66 1 25 63
M  V30 67 1 25 64
M  V30 68 1 26 65
M  V30 69 1 27 66
M  V30 70 1 27 67
M  V30 71 1 28 68
M  V30 72 1 28 69
M  V30 73 1 28 70
M  V30 74 1 29 71
M  V30 75 1 29 72
M  V30 76 1 30 73
M  V30 77 1 30 74
M  V30 78 1 31 75
M  V30 79 1 32 76
M  V30 80 1 32 77
M  V30 81 1 32 78
M  V30 82 1 33 79
M  V30 83 1 33 80
M  V30 84 1 33 81
M  V30 END BOND
M  V30 BEGIN COLLECTION
M  V30 MDLV30/STEABS ATOMS=(9 2 5 6 9 15 19 21 23 26)
M  V30 END COLLECTION
M  V30 END CTAB
M  END
>  <level_0>
1158

>  <index>
1158

>  <NO.>
1159

>  <Name>
schembl1006384

>  <SMILES>
CC(=O)OC1CC[C@@]2(C)C([C@@H]1Br)[C@H](Br)C[C@@H]1[C@@H]2CC[C@@]2(C)[C@H]1CC[C@@H]2[C@H](C)CCCC(C)C

>  <logBB>


>  <Class>
1

>  <MW>
586.2

>  <nHBAcc>
2

>  <nHBDon>
0

>  <SLogP>
8.79

>  <TopoPSA>
26.3

>  <MMFF94 Energy>
96.282

$$$$
CC(=O)OCC1=C(C(=O)O)N2C(=O)[C@@H](NC(=O)CCC[C@@H](N)C(=O)O)[C@H]2SC1
Actelion Java MolfileCreator 2.0

  0  0  0  0  0  0              0 V3000
M  V30 BEGIN CTAB
M  V30 COUNTS 49 50 0 0 0
M  V30 BEGIN ATOM
M  V30 1 S 2.014 0.4025 -0.4025 0
M  V30 2 C 1.9102 -1.2938 0.2353 0 CFG=1
M  V30 3 C 3.5111 0.7915 0.5591 0
M  V30 4 N 1.734 -1.1982 1.6662 0
M  V30 5 C 0.5334 -2.0264 0.1999 0 CFG=1
M  V30 6 C 3.4048 0.4267 2.0272 0
M  V30 7 C 2.5246 -0.4821 2.5066 0
M  V30 8 C 0.5688 -1.8687 1.7532 0
M  V30 9 N -0.5985 -1.3551 -0.4926 0
M  V30 10 C 4.3728 1.1933 2.8991 0
M  V30 11 C 2.3518 -0.6921 3.9704 0
M  V30 12 O -0.1675 -2.1247 2.6763 0
M  V30 13 C -0.7374 -1.4413 -1.8582 0
M  V30 14 O 3.8837 2.5294 3.0281 0
M  V30 15 O 2.246 0.171 4.8221 0
M  V30 16 O 2.3834 -2.0012 4.2773 0
M  V30 17 O 0.0358 -2.0847 -2.5605 0
M  V30 18 C -1.919 -0.6791 -2.4168 0
M  V30 19 C 4.6687 3.3252 3.8028 0
M  V30 20 C -3.2284 -1.4141 -2.1395 0
M  V30 21 O 5.7371 2.997 4.2983 0
M  V30 22 C 4.0436 4.6783 3.9491 0
M  V30 23 C -4.4727 -0.6113 -2.5401 0
M  V30 24 C -4.5715 -0.2465 -4.0279 0 CFG=1
M  V30 25 N -4.5372 -1.4662 -4.8654 0
M  V30 26 C -5.8531 0.5628 -4.2887 0
M  V30 27 O -6.3439 1.4067 -3.5563 0
M  V30 28 O -6.4239 0.2927 -5.4852 0
M  V30 29 H 2.75 -1.9375 -0.0515 0
M  V30 30 H 4.3703 0.2791 0.1132 0
M  V30 31 H 3.6728 1.8686 0.4471 0
M  V30 32 H 0.6048 -3.0804 -0.0976 0
M  V30 33 H -1.261 -0.799 0.0366 0
M  V30 34 H 4.5009 0.7398 3.8873 0
M  V30 35 H 5.3581 1.2042 2.4155 0
M  V30 36 H 2.1868 -2.0286 5.2364 0
M  V30 37 H -1.7585 -0.5525 -3.4926 0
M  V30 38 H -1.9353 0.3207 -1.9676 0
M  V30 39 H -3.3047 -1.6411 -1.0686 0
M  V30 40 H -3.2204 -2.3857 -2.6479 0
M  V30 41 H 3.9755 5.1624 2.9719 0
M  V30 42 H 3.0534 4.5824 4.4015 0
M  V30 43 H 4.6651 5.2957 4.6039 0
M  V30 44 H -4.5006 0.3085 -1.9413 0
M  V30 45 H -5.3626 -1.1837 -2.2446 0
M  V30 46 H -3.7364 0.3967 -4.3243 0
M  V30 47 H -4.7592 -1.1807 -5.8238 0
M  V30 48 H -5.3159 -2.0699 -4.599 0
M  V30 49 H -7.1987 0.893 -5.5154 0
M  V30 END ATOM
M  V30 BEGIN BOND
M  V30 1 1 1 2
M  V30 2 1 1 3
M  V30 3 1 2 4
M  V30 4 1 2 5
M  V30 5 1 3 6
M  V30 6 1 4 7
M  V30 7 1 4 8
M  V30 8 1 5 9
M  V30 9 1 6 10
M  V30 10 1 7 11
M  V30 11 2 8 12
M  V30 12 1 9 13
M  V30 13 1 10 14
M  V30 14 2 11 15
M  V30 15 1 11 16
M  V30 16 2 13 17
M  V30 17 1 13 18
M  V30 18 1 14 19
M  V30 19 1 18 20
M  V30 20 2 19 21
M  V30 21 1 19 22
M  V30 22 1 20 23
M  V30 23 1 23 24
M  V30 24 1 24 25
M  V30 25 1 24 26
M  V30 26 2 26 27
M  V30 27 1 26 28
M  V30 28 1 5 8
M  V30 29 2 6 7
M  V30 30 1 2 29
M  V30 31 1 3 30
M  V30 32 1 3 31
M  V30 33 1 5 32
M  V30 34 1 9 33
M  V30 35 1 10 34
M  V30 36 1 10 35
M  V30 37 1 16 36
M  V30 38 1 18 37
M  V30 39 1 18 38
M  V30 40 1 20 39
M  V30 41 1 20 40
M  V30 42 1 22 41
M  V30 43 1 22 42
M  V30 44 1 22 43
M  V30 45 1 23 44
M  V30 46 1 23 45
M  V30 47 1 24 46
M  V30 48 1 25 47
M  V30 49 1 25 48
M  V30 50 1 28 49
M  V30 END BOND
M  V30 BEGIN COLLECTION
M  V30 MDLV30/STEABS ATOMS=(3 2 5 24)
M  V30 END COLLECTION
M  V30 END CTAB
M  END
>  <level_0>
1185

>  <index>
1185

>  <NO.>
1186

>  <Name>
cephalosporin-c

>  <SMILES>
CC(=O)OCC1=C(C(=O)O)N2C(=O)[C@@H](NC(=O)CCC[C@@H](N)C(=O)O)[C@H]2SC1

>  <logBB>


>  <Class>
-1

>  <MW>
415.1

>  <nHBAcc>
8

>  <nHBDon>
4

>  <SLogP>
-1.13

>  <TopoPSA>
176.33

>  <MMFF94 Energy>
-8.7574

$$$$
CC(=O)OCC1=C(C(=O)O)N2C(=O)[C@@H](NC(=O)[C@H](N)c3ccccc3)[C@H]2SC1
Actelion Java MolfileCreator 2.0

  0  0  0  0  0  0              0 V3000
M  V30 BEGIN CTAB
M  V30 COUNTS 47 49 0 0 0
M  V30 BEGIN ATOM
M  V30 1 S 0.8914 -0.4051 -0.6482 0
M  V30 2 C 0.8776 -1.9744 0.2615 0 CFG=1
M  V30 3 C 2.4537 0.1502 0.1035 0
M  V30 4 N 0.8247 -1.6507 1.6687 0
M  V30 5 C -0.4815 -2.7131 0.4668 0 CFG=1
M  V30 6 C 2.4831 0.0258 1.6147 0
M  V30 7 C 1.6689 -0.8018 2.3097 0
M  V30 8 C -0.3111 -2.3106 1.9667 0
M  V30 9 N -1.6881 -2.1705 -0.212 0
M  V30 10 C 3.5048 0.9317 2.2632 0
M  V30 11 C 1.6293 -0.7752 3.7979 0
M  V30 12 O -0.957 -2.4237 2.9819 0
M  V30 13 C -1.932 -2.4413 -1.5432 0
M  V30 14 O 2.9976 2.2666 2.2202 0
M  V30 15 O 1.5767 0.2124 4.5074 0
M  V30 16 O 1.72 -2.0178 4.3053 0
M  V30 17 O -1.1685 -3.1408 -2.2119 0
M  V30 18 C -3.2166 -1.7879 -2.1182 0 CFG=2
M  V30 19 C 3.8291 3.1848 2.7818 0
M  V30 20 N -3.8382 -2.6988 -3.0962 0
M  V30 21 C -2.9417 -0.4289 -2.735 0
M  V30 22 O 4.9449 2.9512 3.2239 0
M  V30 23 C 3.1874 4.538 2.7653 0
M  V30 24 C -1.8868 -0.2286 -3.64 0
M  V30 25 C -3.7798 0.6567 -2.4314 0
M  V30 26 C -1.6625 1.0279 -4.2057 0
M  V30 27 C -3.5545 1.912 -2.9998 0
M  V30 28 C -2.4948 2.0976 -3.8843 0
M  V30 29 H 1.7024 -2.651 0.0083 0
M  V30 30 H 3.2845 -0.4177 -0.3288 0
M  V30 31 H 2.5784 1.197 -0.1927 0
M  V30 32 H -0.4142 -3.8004 0.3322 0
M  V30 33 H -2.3233 -1.5599 0.2905 0
M  V30 34 H 3.7284 0.6448 3.2959 0
M  V30 35 H 4.4442 0.8733 1.6982 0
M  V30 36 H 1.6082 -1.8927 5.2703 0
M  V30 37 H -3.9257 -1.6733 -1.2889 0
M  V30 38 H -4.4913 -2.1669 -3.669 0
M  V30 39 H -3.1002 -3.0151 -3.7294 0
M  V30 40 H 3.0212 4.8565 1.7332 0
M  V30 41 H 2.2436 4.5078 3.3158 0
M  V30 42 H 3.8497 5.2592 3.2527 0
M  V30 43 H -1.224 -1.0496 -3.9095 0
M  V30 44 H -4.6194 0.5332 -1.7501 0
M  V30 45 H -0.8363 1.1701 -4.8975 0
M  V30 46 H -4.2078 2.7455 -2.754 0
M  V30 47 H -2.3186 3.075 -4.3258 0
M  V30 END ATOM
M  V30 BEGIN BOND
M  V30 1 1 1 2
M  V30 2 1 1 3
M  V30 3 1 2 4
M  V30 4 1 2 5
M  V30 5 1 3 6
M  V30 6 1 4 7
M  V30 7 1 4 8
M  V30 8 1 5 9
M  V30 9 1 6 10
M  V30 10 1 7 11
M  V30 11 2 8 12
M  V30 12 1 9 13
M  V30 13 1 10 14
M  V30 14 2 11 15
M  V30 15 1 11 16
M  V30 16 2 13 17
M  V30 17 1 13 18
M  V30 18 1 14 19
M  V30 19 1 18 20
M  V30 20 1 18 21
M  V30 21 2 19 22
M  V30 22 1 19 23
M  V30 23 2 21 24
M  V30 24 1 21 25
M  V30 25 1 24 26
M  V30 26 2 25 27
M  V30 27 2 26 28
M  V30 28 1 5 8
M  V30 29 2 6 7
M  V30 30 1 27 28
M  V30 31 1 2 29
M  V30 32 1 3 30
M  V30 33 1 3 31
M  V30 34 1 5 32
M  V30 35 1 9 33
M  V30 36 1 10 34
M  V30 37 1 10 35
M  V30 38 1 16 36
M  V30 39 1 18 37
M  V30 40 1 20 38
M  V30 41 1 20 39
M  V30 42 1 23 40
M  V30 43 1 23 41
M  V30 44 1 23 42
M  V30 45 1 24 43
M  V30 46 1 25 44
M  V30 47 1 26 45
M  V30 48 1 27 46
M  V30 49 1 28 47
M  V30 END BOND
M  V30 BEGIN COLLECTION
M  V30 MDLV30/STEABS ATOMS=(3 2 5 18)
M  V30 END COLLECTION
M  V30 END CTAB
M  END
>  <level_0>
1189

>  <index>
1189

>  <NO.>
1190

>  <Name>
cephaloglycin

>  <SMILES>
CC(=O)OCC1=C(C(=O)O)N2C(=O)[C@@H](NC(=O)[C@H](N)c3ccccc3)[C@H]2SC1

>  <logBB>


>  <Class>
-1

>  <MW>
405.1

>  <nHBAcc>
7

>  <nHBDon>
3

>  <SLogP>
-0.01

>  <TopoPSA>
139.03

>  <MMFF94 Energy>
41.163

$$$$
CC(=O)OCC1=C(C(=O)O)N2C(=O)[C@H](NC(=O)CC#N)[C@@H]2SC1
Actelion Java MolfileCreator 2.0

  0  0  0  0  0  0              0 V3000
M  V30 BEGIN CTAB
M  V30 COUNTS 36 37 0 0 0
M  V30 BEGIN ATOM
M  V30 1 S -0.0816 0.0 1.7158 0
M  V30 2 C -0.4921 -1.3039 0.5192 0 CFG=2
M  V30 3 C 1.2805 0.6498 0.6935 0
M  V30 4 N -0.8899 -0.6426 -0.7017 0
M  V30 5 C -1.9248 -1.9233 0.551 0 CFG=2
M  V30 6 C 0.8866 0.9106 -0.7492 0
M  V30 7 C -0.1717 0.314 -1.3455 0
M  V30 8 C -2.1264 -1.1676 -0.8012 0
M  V30 9 N -2.8411 -1.5194 1.6572 0
M  V30 10 C 1.772 1.9332 -1.43 0
M  V30 11 C -0.6254 0.7181 -2.7036 0
M  V30 12 O -3.0341 -0.9988 -1.5803 0
M  V30 13 C -2.7168 -2.0818 2.9098 0
M  V30 14 O 3.1297 1.4864 -1.2964 0
M  V30 15 O -0.8027 1.8566 -3.0959 0
M  V30 16 O -0.7841 -0.3523 -3.5011 0
M  V30 17 O -1.8819 -2.9505 3.1513 0
M  V30 18 C -3.6697 -1.5566 3.9538 0
M  V30 19 C 4.0496 2.3667 -1.7777 0
M  V30 20 C -4.8015 -2.4689 4.0997 0
M  V30 21 O 3.7967 3.456 -2.2699 0
M  V30 22 C 5.4295 1.8086 -1.6123 0
M  V30 23 N -5.7264 -3.1607 4.2134 0
M  V30 24 H 0.2987 -2.0479 0.3683 0
M  V30 25 H 2.1224 -0.0498 0.7314 0
M  V30 26 H 1.5992 1.5835 1.1691 0
M  V30 27 H -1.9374 -3.0118 0.4117 0
M  V30 28 H -3.5578 -0.8225 1.4783 0
M  V30 29 H 1.5598 2.042 -2.4964 0
M  V30 30 H 1.6462 2.9048 -0.9365 0
M  V30 31 H -1.1541 0.0153 -4.3302 0
M  V30 32 H -3.122 -1.4585 4.8972 0
M  V30 33 H -4.0158 -0.5551 3.6771 0
M  V30 34 H 5.6398 1.6489 -0.5518 0
M  V30 35 H 5.5196 0.8721 -2.1683 0
M  V30 36 H 6.1584 2.5209 -2.0094 0
M  V30 END ATOM
M  V30 BEGIN BOND
M  V30 1 1 1 2
M  V30 2 1 1 3
M  V30 3 1 2 4
M  V30 4 1 2 5
M  V30 5 1 3 6
M  V30 6 1 4 7
M  V30 7 1 4 8
M  V30 8 1 5 9
M  V30 9 1 6 10
M  V30 10 1 7 11
M  V30 11 2 8 12
M  V30 12 1 9 13
M  V30 13 1 10 14
M  V30 14 2 11 15
M  V30 15 1 11 16
M  V30 16 2 13 17
M  V30 17 1 13 18
M  V30 18 1 14 19
M  V30 19 1 18 20
M  V30 20 2 19 21
M  V30 21 1 19 22
M  V30 22 3 20 23
M  V30 23 1 5 8
M  V30 24 2 6 7
M  V30 25 1 2 24
M  V30 26 1 3 25
M  V30 27 1 3 26
M  V30 28 1 5 27
M  V30 29 1 9 28
M  V30 30 1 10 29
M  V30 31 1 10 30
M  V30 32 1 16 31
M  V30 33 1 18 32
M  V30 34 1 18 33
M  V30 35 1 22 34
M  V30 36 1 22 35
M  V30 37 1 22 36
M  V30 END BOND
M  V30 BEGIN COLLECTION
M  V30 MDLV30/STEABS ATOMS=(2 2 5)
M  V30 END COLLECTION
M  V30 END CTAB
M  END
>  <level_0>
1191

>  <index>
1191

>  <NO.>
1192

>  <Name>
cephacetrile

>  <SMILES>
CC(=O)OCC1=C(C(=O)O)N2C(=O)[C@H](NC(=O)CC#N)[C@@H]2SC1

>  <logBB>


>  <Class>
-1

>  <MW>
339.05

>  <nHBAcc>
7

>  <nHBDon>
2

>  <SLogP>
-0.8

>  <TopoPSA>
136.8

>  <MMFF94 Energy>
-28.826

$$$$
CC(=O)O[C@@]12CO[C@@H]1C[C@H](O)[C@@]1(C)C(=O)[C@H](O)C3=C(C)[C@@H](OC(=O)[C@H](O)[C@@H](NC(=O)OC(C)(C)C)c4ccccc4)C[C@@](O)([C@@H](OC(=O)c4ccccc4)[C@@H]12)C3(C)C
Actelion Java MolfileCreator 2.0

  0  0  0  0  0  0              0 V3000
M  V30 BEGIN CTAB
M  V30 COUNTS 111 116 0 0 0
M  V30 BEGIN ATOM
M  V30 1 O 4.5083 1.8497 3.2186 0
M  V30 2 C 3.6948 1.5183 2.3401 0
M  V30 3 C 3.5968 0.0312 1.8509 0 CFG=1
M  V30 4 C 2.8621 2.6435 1.6909 0 CFG=2
M  V30 5 C 2.1335 -0.5767 1.7365 0 CFG=1
M  V30 6 C 4.1926 0.0159 0.4158 0 CFG=1
M  V30 7 C 4.5005 -0.7557 2.8404 0
M  V30 8 O 3.1166 3.9098 2.2812 0
M  V30 9 C 1.3895 2.3671 1.823 0
M  V30 10 C 2.0968 -1.9931 1.0466 0 CFG=1
M  V30 11 C 1.2388 -0.5117 3.034 0 CFG=2
M  V30 12 O 5.3953 0.7771 0.3365 0
M  V30 13 C 4.4696 -1.3803 -0.1209 0
M  V30 14 C 0.5958 2.2241 0.7276 0
M  V30 15 C 0.7835 2.1051 3.2198 0
M  V30 16 O 0.769 -2.1039 0.4334 0
M  V30 17 C 3.3097 -2.3364 0.1136 0 CFG=1
M  V30 18 C 2.5951 -3.209 1.8722 0
M  V30 19 O 0.5054 -1.7659 3.1727 0
M  V30 20 C 0.1535 0.6746 3.1499 0 CFG=2
M  V30 21 C -0.7699 1.5605 0.8299 0 CFG=2
M  V30 22 C 0.973 2.6888 -0.6584 0
M  V30 23 C 1.7125 2.2286 4.4617 0
M  V30 24 C -0.2873 3.2085 3.5052 0
M  V30 25 C 0.4049 -3.2592 -0.1913 0
M  V30 26 O 3.7383 -3.3946 1.0141 0
M  V30 27 C 0.3363 -2.2437 4.4337 0
M  V30 28 O -0.5918 0.4646 4.3767 0
M  V30 29 C -0.9272 0.5966 2.0308 0
M  V30 30 O -0.9976 0.7917 -0.3729 0
M  V30 31 O 1.1186 -4.2273 -0.4018 0
M  V30 32 C -1.031 -3.2007 -0.61 0
M  V30 33 O 0.7737 -1.7241 5.4485 0
M  V30 34 C -0.423 -3.5167 4.4095 0
M  V30 35 C -2.2987 0.6918 -0.7754 0
M  V30 36 C -0.3148 -4.3768 5.509 0
M  V30 37 C -1.2448 -3.8677 3.331 0
M  V30 38 O -3.2569 1.1614 -0.1735 0
M  V30 39 C -2.4202 -0.1533 -2.0529 0 CFG=2
M  V30 40 C -1.0079 -5.5882 5.5196 0
M  V30 41 C -1.9358 -5.0805 3.3453 0
M  V30 42 O -1.174 -0.5048 -2.6629 0
M  V30 43 C -3.4159 0.5131 -3.055 0 CFG=1
M  V30 44 C -1.8143 -5.9399 4.4372 0
M  V30 45 N -2.827 1.2133 -4.1942 0
M  V30 46 C -4.3944 -0.5253 -3.5957 0
M  V30 47 C -1.8028 2.0939 -4.11 0
M  V30 48 C -5.7664 -0.4155 -3.3238 0
M  V30 49 C -3.9425 -1.6039 -4.3751 0
M  V30 50 O -1.144 2.2753 -3.0991 0
M  V30 51 O -1.6232 2.6874 -5.3075 0
M  V30 52 C -6.6637 -1.3639 -3.8178 0
M  V30 53 C -4.8422 -2.5498 -4.8669 0
M  V30 54 C -0.5682 3.6657 -5.4977 0
M  V30 55 C -6.2019 -2.4294 -4.588 0
M  V30 56 C -0.7804 4.8933 -4.6045 0
M  V30 57 C -0.6952 4.0977 -6.9662 0
M  V30 58 C 0.8148 3.0388 -5.288 0
M  V30 59 H 3.2143 2.7069 0.6601 0
M  V30 60 H 1.6387 0.0413 0.9906 0
M  V30 61 H 3.4883 0.5085 -0.2661 0
M  V30 62 H 4.6777 -1.7903 2.5592 0
M  V30 63 H 5.5006 -0.3109 2.9142 0
M  V30 64 H 4.0818 -0.7547 3.8521 0
M  V30 65 H 3.9774 3.8186 2.7375 0
M  V30 66 H 1.914 -0.4467 3.8891 0
M  V30 67 H 6.1023 0.3141 0.8229 0
M  V30 68 H 4.6793 -1.3059 -1.1962 0
M  V30 69 H 5.3998 -1.7782 0.3054 0
M  V30 70 H 3.0213 -2.7703 -0.8514 0
M  V30 71 H 2.8938 -3.011 2.9053 0
M  V30 72 H 1.9578 -4.0975 1.8891 0
M  V30 73 H -1.5119 2.3671 0.8801 0
M  V30 74 H 1.2415 1.8398 -1.2941 0
M  V30 75 H 0.1283 3.2202 -1.108 0
M  V30 76 H 1.7996 3.4033 -0.6654 0
M  V30 77 H 2.2197 3.1982 4.4965 0
M  V30 78 H 1.1366 2.154 5.3929 0
M  V30 79 H 2.4689 1.4489 4.53 0
M  V30 80 H 0.1779 4.2024 3.511 0
M  V30 81 H -0.7593 3.0653 4.4846 0
M  V30 82 H -1.1002 3.2482 2.7792 0
M  V30 83 H 0.0165 0.1412 5.0721 0
M  V30 84 H -1.0235 -0.4375 1.6793 0
M  V30 85 H -1.9136 0.8053 2.4711 0
M  V30 86 H -1.5583 -2.4084 -0.0721 0
M  V30 87 H -1.0897 -3.0238 -1.6852 0
M  V30 88 H -1.5153 -4.1482 -0.3585 0
M  V30 89 H 0.3102 -4.1087 6.3585 0
M  V30 90 H -1.3662 -3.1989 2.4844 0
M  V30 91 H -2.844 -1.0971 -1.6877 0
M  V30 92 H -0.9201 -6.2571 6.3725 0
M  V30 93 H -2.5736 -5.3548 2.5085 0
M  V30 94 H -0.692 0.3435 -2.7544 0
M  V30 95 H -4.0032 1.2785 -2.5327 0
M  V30 96 H -2.3539 -6.8842 4.4476 0
M  V30 97 H -3.2922 1.1681 -5.0908 0
M  V30 98 H -6.1494 0.4078 -2.7234 0
M  V30 99 H -2.8823 -1.7124 -4.6005 0
M  V30 100 H -7.7252 -1.2715 -3.601 0
M  V30 101 H -4.482 -3.3812 -5.4676 0
M  V30 102 H -6.9028 -3.1667 -4.9714 0
M  V30 103 H -0.634 4.659 -3.5457 0
M  V30 104 H -0.0829 5.6979 -4.861 0
M  V30 105 H -1.8032 5.2738 -4.7033 0
M  V30 106 H -1.6881 4.5184 -7.164 0
M  V30 107 H 0.0574 4.8454 -7.2372 0
M  V30 108 H -0.5854 3.2371 -7.6362 0
M  V30 109 H 0.99 2.7745 -4.2407 0
M  V30 110 H 0.9136 2.1133 -5.8662 0
M  V30 111 H 1.6131 3.7254 -5.5898 0
M  V30 END ATOM
M  V30 BEGIN BOND
M  V30 1 2 1 2
M  V30 2 1 2 3
M  V30 3 1 2 4
M  V30 4 1 3 5
M  V30 5 1 3 6
M  V30 6 1 3 7
M  V30 7 1 4 8
M  V30 8 1 4 9
M  V30 9 1 5 10
M  V30 10 1 5 11
M  V30 11 1 6 12
M  V30 12 1 6 13
M  V30 13 2 9 14
M  V30 14 1 9 15
M  V30 15 1 10 16
M  V30 16 1 10 17
M  V30 17 1 10 18
M  V30 18 1 11 19
M  V30 19 1 11 20
M  V30 20 1 14 21
M  V30 21 1 14 22
M  V30 22 1 15 23
M  V30 23 1 15 24
M  V30 24 1 16 25
M  V30 25 1 17 26
M  V30 26 1 19 27
M  V30 27 1 20 28
M  V30 28 1 20 29
M  V30 29 1 21 30
M  V30 30 2 25 31
M  V30 31 1 25 32
M  V30 32 2 27 33
M  V30 33 1 27 34
M  V30 34 1 30 35
M  V30 35 2 34 36
M  V30 36 1 34 37
M  V30 37 2 35 38
M  V30 38 1 35 39
M  V30 39 1 36 40
M  V30 40 2 37 41
M  V30 41 1 39 42
M  V30 42 1 39 43
M  V30 43 2 40 44
M  V30 44 1 43 45
M  V30 45 1 43 46
M  V30 46 1 45 47
M  V30 47 2 46 48
M  V30 48 1 46 49
M  V30 49 2 47 50
M  V30 50 1 47 51
M  V30 51 1 48 52
M  V30 52 2 49 53
M  V30 53 1 51 54
M  V30 54 2 52 55
M  V30 55 1 54 56
M  V30 56 1 54 57
M  V30 57 1 54 58
M  V30 58 1 13 17
M  V30 59 1 15 20
M  V30 60 1 18 26
M  V30 61 1 21 29
M  V30 62 1 41 44
M  V30 63 1 53 55
M  V30 64 1 4 59
M  V30 65 1 5 60
M  V30 66 1 6 61
M  V30 67 1 7 62
M  V30 68 1 7 63
M  V30 69 1 7 64
M  V30 70 1 8 65
M  V30 71 1 11 66
M  V30 72 1 12 67
M  V30 73 1 13 68
M  V30 74 1 13 69
M  V30 75 1 17 70
M  V30 76 1 18 71
M  V30 77 1 18 72
M  V30 78 1 21 73
M  V30 79 1 22 74
M  V30 80 1 22 75
M  V30 81 1 22 76
M  V30 82 1 23 77
M  V30 83 1 23 78
M  V30 84 1 23 79
M  V30 85 1 24 80
M  V30 86 1 24 81
M  V30 87 1 24 82
M  V30 88 1 28 83
M  V30 89 1 29 84
M  V30 90 1 29 85
M  V30 91 1 32 86
M  V30 92 1 32 87
M  V30 93 1 32 88
M  V30 94 1 36 89
M  V30 95 1 37 90
M  V30 96 1 39 91
M  V30 97 1 40 92
M  V30 98 1 41 93
M  V30 99 1 42 94
M  V30 100 1 43 95
M  V30 101 1 44 96
M  V30 102 1 45 97
M  V30 103 1 48 98
M  V30 104 1 49 99
M  V30 105 1 52 100
M  V30 106 1 53 101
M  V30 107 1 55 102
M  V30 108 1 56 103
M  V30 109 1 56 104
M  V30 110 1 56 105
M  V30 111 1 57 106
M  V30 112 1 57 107
M  V30 113 1 57 108
M  V30 114 1 58 109
M  V30 115 1 58 110
M  V30 116 1 58 111
M  V30 END BOND
M  V30 BEGIN COLLECTION
M  V30 MDLV30/STEABS ATOMS=(11 3 4 5 6 10 11 17 20 21 39 43)
M  V30 END COLLECTION
M  V30 END CTAB
M  END
>  <level_0>
1197

>  <index>
1197

>  <NO.>
1198

>  <Name>
docetaxel

>  <SMILES>
CC(=O)O[C@@]12CO[C@@H]1C[C@H](O)[C@@]1(C)C(=O)[C@H](O)C3=C(C)[C@@H](OC(=O)[C@H](O)[C@@H](NC(=O)OC(C)(C)C)c4ccccc4)C[C@@](O)([C@@H](OC(=O)c4ccccc4)[C@@H]12)C3(C)C

>  <logBB>


>  <Class>
-1

>  <MW>
807.35

>  <nHBAcc>
14

>  <nHBDon>
5

>  <SLogP>
3.26

>  <TopoPSA>
224.45

>  <MMFF94 Energy>
173.8

$$$$
CC(=O)O[C@H]1C[C@@]2(C)[C@@H](C[C@@H](O)[C@H]3[C@@]4(C)CC[C@@H](O)[C@@H](C)[C@@H]4CC[C@@]32C)/C1=C(\CCC=C(C)C)C(=O)O
Actelion Java MolfileCreator 2.0

  0  0  0  0  0  0              0 V3000
M  V30 BEGIN CTAB
M  V30 COUNTS 85 88 0 0 0
M  V30 BEGIN ATOM
M  V30 1 O -3.1095 2.2317 -4.627 0
M  V30 2 C -2.0323 2.6262 -4.2219 0
M  V30 3 O -1.1967 3.3151 -5.0157 0
M  V30 4 C -1.4686 2.451 -2.8572 0
M  V30 5 C -1.5664 1.2333 -2.2698 0
M  V30 6 C -0.9603 3.7296 -2.2408 0
M  V30 7 C -1.1272 0.7834 -0.8759 0 CFG=1
M  V30 8 C -2.1688 -0.0044 -2.9615 0 CFG=1
M  V30 9 C 0.5393 3.9649 -2.4692 0
M  V30 10 C -0.7544 -0.7176 -1.0903 0 CFG=2
M  V30 11 C -0.0539 1.4835 -0.0352 0
M  V30 12 O -1.4866 -0.2257 -4.2018 0
M  V30 13 C -1.9252 -1.1763 -1.9897 0
M  V30 14 C 1.0319 5.1271 -1.6462 0
M  V30 15 C -0.6422 -1.4723 0.3194 0 CFG=2
M  V30 16 C 0.5578 -0.8591 -1.9378 0
M  V30 17 C 0.1283 0.7985 1.3376 0 CFG=2
M  V30 18 C -2.1206 -1.0658 -5.0633 0
M  V30 19 C 2.0173 5.1434 -0.7271 0
M  V30 20 C 0.4218 -0.7173 1.2055 0 CFG=1
M  V30 21 C -0.1072 -2.9188 0.1292 0
M  V30 22 C -2.0402 -1.5338 1.0053 0
M  V30 23 O -1.0401 1.0236 2.1153 0
M  V30 24 O -3.1489 -1.6858 -4.8343 0
M  V30 25 C -1.3555 -1.1437 -6.3484 0
M  V30 26 C 2.3498 6.415 0.0116 0
M  V30 27 C 2.8746 3.9704 -0.3404 0
M  V30 28 C 0.9192 -1.5026 2.5144 0 CFG=2
M  V30 29 C 0.1432 -3.7143 1.4154 0
M  V30 30 C 0.1994 -2.8815 2.703 0 CFG=1
M  V30 31 C 0.7342 -0.7007 3.8309 0
M  V30 32 C 2.4522 -1.7239 2.3055 0
M  V30 33 C 0.7271 -3.6794 3.9352 0 CFG=1
M  V30 34 C 1.2062 -1.4477 5.0867 0
M  V30 35 C 0.5833 -2.8359 5.2233 0 CFG=1
M  V30 36 C 0.0242 -5.0351 4.0988 0
M  V30 37 O -0.7905 -2.6562 5.5691 0
M  V30 38 H -1.6772 3.3602 -5.8679 0
M  V30 39 H -1.2098 3.7551 -1.1762 0
M  V30 40 H -1.5205 4.5805 -2.6547 0
M  V30 41 H -2.0547 0.8621 -0.2948 0
M  V30 42 H -3.2455 0.1375 -3.1192 0
M  V30 43 H 1.0984 3.0504 -2.2628 0
M  V30 44 H 0.724 4.2014 -3.5235 0
M  V30 45 H 0.9023 1.4977 -0.5656 0
M  V30 46 H -0.3389 2.5195 0.1575 0
M  V30 47 H -2.8423 -1.3357 -1.4144 0
M  V30 48 H -1.6982 -2.117 -2.5024 0
M  V30 49 H 0.5033 6.0603 -1.8459 0
M  V30 50 H 0.6531 -1.8714 -2.3458 0
M  V30 51 H 0.5878 -0.1782 -2.7936 0
M  V30 52 H 1.4679 -0.6459 -1.3755 0
M  V30 53 H 0.9661 1.2895 1.8456 0
M  V30 54 H 1.3228 -0.7063 0.5831 0
M  V30 55 H -0.7796 -3.4915 -0.5217 0
M  V30 56 H 0.8533 -2.8899 -0.3983 0
M  V30 57 H -1.9979 -1.4184 2.0884 0
M  V30 58 H -2.7223 -0.7436 0.6871 0
M  V30 59 H -2.5471 -2.4804 0.7864 0
M  V30 60 H -1.0981 1.9769 2.299 0
M  V30 61 H -1.2657 -0.1466 -6.7871 0
M  V30 62 H -0.3682 -1.5745 -6.1655 0
M  V30 63 H -1.8938 -1.7843 -7.0526 0
M  V30 64 H 2.2321 6.2671 1.0902 0
M  V30 65 H 1.7029 7.2488 -0.281 0
M  V30 66 H 3.3846 6.7112 -0.1888 0
M  V30 67 H 2.734 3.0969 -0.9789 0
M  V30 68 H 3.9339 4.241 -0.4065 0
M  V30 69 H 2.6596 3.6721 0.6908 0
M  V30 70 H 1.0694 -4.2908 1.297 0
M  V30 71 H -0.6593 -4.457 1.5096 0
M  V30 72 H -0.8413 -2.6765 2.966 0
M  V30 73 H -0.3262 -0.4582 3.9654 0
M  V30 74 H 1.2776 0.2497 3.786 0
M  V30 75 H 2.6507 -2.3177 1.4063 0
M  V30 76 H 2.9662 -0.762 2.1886 0
M  V30 77 H 2.9407 -2.2386 3.1352 0
M  V30 78 H 1.7904 -3.9027 3.7915 0
M  V30 79 H 2.2981 -1.531 5.086 0
M  V30 80 H 0.9423 -0.8402 5.9617 0
M  V30 81 H 1.0607 -3.3532 6.064 0
M  V30 82 H 0.3045 -5.7217 3.2936 0
M  V30 83 H -1.0656 -4.9316 4.0887 0
M  V30 84 H 0.314 -5.5112 5.0416 0
M  V30 85 H -1.1468 -3.5181 5.8409 0
M  V30 END ATOM
M  V30 BEGIN BOND
M  V30 1 2 1 2
M  V30 2 1 2 3
M  V30 3 1 2 4
M  V30 4 2 4 5
M  V30 5 1 4 6
M  V30 6 1 5 7
M  V30 7 1 5 8
M  V30 8 1 6 9
M  V30 9 1 7 10
M  V30 10 1 7 11
M  V30 11 1 8 12
M  V30 12 1 8 13
M  V30 13 1 9 14
M  V30 14 1 10 15
M  V30 15 1 10 16
M  V30 16 1 11 17
M  V30 17 1 12 18
M  V30 18 2 14 19
M  V30 19 1 15 20
M  V30 20 1 15 21
M  V30 21 1 15 22
M  V30 22 1 17 23
M  V30 23 2 18 24
M  V30 24 1 18 25
M  V30 25 1 19 26
M  V30 26 1 19 27
M  V30 27 1 20 28
M  V30 28 1 21 29
M  V30 29 1 28 30
M  V30 30 1 28 31
M  V30 31 1 28 32
M  V30 32 1 30 33
M  V30 33 1 31 34
M  V30 34 1 33 35
M  V30 35 1 33 36
M  V30 36 1 35 37
M  V30 37 1 10 13
M  V30 38 1 17 20
M  V30 39 1 29 30
M  V30 40 1 34 35
M  V30 41 1 3 38
M  V30 42 1 6 39
M  V30 43 1 6 40
M  V30 44 1 7 41
M  V30 45 1 8 42
M  V30 46 1 9 43
M  V30 47 1 9 44
M  V30 48 1 11 45
M  V30 49 1 11 46
M  V30 50 1 13 47
M  V30 51 1 13 48
M  V30 52 1 14 49
M  V30 53 1 16 50
M  V30 54 1 16 51
M  V30 55 1 16 52
M  V30 56 1 17 53
M  V30 57 1 20 54
M  V30 58 1 21 55
M  V30 59 1 21 56
M  V30 60 1 22 57
M  V30 61 1 22 58
M  V30 62 1 22 59
M  V30 63 1 23 60
M  V30 64 1 25 61
M  V30 65 1 25 62
M  V30 66 1 25 63
M  V30 67 1 26 64
M  V30 68 1 26 65
M  V30 69 1 26 66
M  V30 70 1 27 67
M  V30 71 1 27 68
M  V30 72 1 27 69
M  V30 73 1 29 70
M  V30 74 1 29 71
M  V30 75 1 30 72
M  V30 76 1 31 73
M  V30 77 1 31 74
M  V30 78 1 32 75
M  V30 79 1 32 76
M  V30 80 1 32 77
M  V30 81 1 33 78
M  V30 82 1 34 79
M  V30 83 1 34 80
M  V30 84 1 35 81
M  V30 85 1 36 82
M  V30 86 1 36 83
M  V30 87 1 36 84
M  V30 88 1 37 85
M  V30 END BOND
M  V30 BEGIN COLLECTION
M  V30 MDLV30/STEABS ATOMS=(10 7 8 10 15 17 20 28 30 33 35)
M  V30 END COLLECTION
M  V30 END CTAB
M  END
>  <level_0>
1200

>  <index>
1200

>  <NO.>
1201

>  <Name>
fusidic acid

>  <SMILES>
CC(=O)O[C@H]1C[C@@]2(C)[C@@H](C[C@@H](O)[C@H]3[C@@]4(C)CC[C@@H](O)[C@@H](C)[C@@H]4CC[C@@]32C)/C1=C(\CCC=C(C)C)C(=O)O

>  <logBB>


>  <Class>
-1

>  <MW>
516.35

>  <nHBAcc>
5

>  <nHBDon>
3

>  <SLogP>
5.67

>  <TopoPSA>
104.06

>  <MMFF94 Energy>
97.49

$$$$
CC(=O)[C@]1(O)Cc2c(O)c3c(c(O)c2C(OC2CC(N)C(O)C(C)O2)C1)C(=O)c1c(O)cccc1C3=O
Actelion Java MolfileCreator 2.0

  0  0  0  0  0  0              0 V3000
M  V30 BEGIN CTAB
M  V30 COUNTS 64 68 0 0 0
M  V30 BEGIN ATOM
M  V30 1 O 2.1803 -2.9887 1.2916 0
M  V30 2 C 2.7211 -1.8954 1.1324 0
M  V30 3 C 2.0812 -0.8734 0.2782 0
M  V30 4 C 4.0035 -1.6125 1.8005 0
M  V30 5 C 0.8534 -1.1344 -0.3566 0
M  V30 6 C 2.6947 0.3639 0.1053 0
M  V30 7 C 4.6244 -2.5729 2.6099 0
M  V30 8 C 4.6094 -0.3697 1.6303 0
M  V30 9 O 0.2251 -2.3472 -0.2308 0
M  V30 10 C 0.216 -0.1673 -1.1587 0
M  V30 11 C 3.9731 0.6566 0.7856 0
M  V30 12 C 2.0992 1.3161 -0.7347 0
M  V30 13 O 4.1008 -3.817 2.8349 0
M  V30 14 C 5.8358 -2.2929 3.2389 0
M  V30 15 C 5.828 -0.0853 2.2622 0
M  V30 16 C 0.8947 1.043 -1.4064 0
M  V30 17 C -1.125 -0.4624 -1.8245 0
M  V30 18 O 4.4967 1.7576 0.642 0
M  V30 19 O 2.6622 2.5497 -0.9476 0
M  V30 20 C 6.4392 -1.0483 3.0654 0
M  V30 21 C 0.3633 2.0386 -2.4143 0
M  V30 22 O -2.2129 -0.8864 -0.9918 0
M  V30 23 C -1.6643 0.6462 -2.7435 0
M  V30 24 C -0.565 1.4114 -3.467 0 CFG=1
M  V30 25 C -2.3301 -0.4032 0.3408 0
M  V30 26 O -1.1884 2.4716 -4.2079 0
M  V30 27 C 0.192 0.5235 -4.482 0
M  V30 28 O -3.4254 -1.1162 0.9394 0
M  V30 29 C -2.6128 1.0999 0.421 0
M  V30 30 O 1.4144 0.3711 -4.4411 0
M  V30 31 C -0.6217 -0.1653 -5.5511 0
M  V30 32 C -3.568 -0.8399 2.3397 0
M  V30 33 C -2.8621 1.522 1.8734 0
M  V30 34 C -3.954 0.6372 2.5149 0
M  V30 35 C -4.6324 -1.7832 2.8868 0
M  V30 36 N -3.233 2.9428 1.9492 0
M  V30 37 O -5.2103 0.9052 1.8646 0
M  V30 38 H 0.7636 -2.9428 0.3357 0
M  V30 39 H 3.2558 -3.8956 2.3397 0
M  V30 40 H 6.3087 -3.0468 3.8645 0
M  V30 41 H 6.3063 0.8843 2.1318 0
M  V30 42 H -0.9288 -1.3173 -2.4863 0
M  V30 43 H 3.5054 2.6076 -0.4423 0
M  V30 44 H 7.3852 -0.8298 3.5561 0
M  V30 45 H 1.1931 2.5327 -2.9365 0
M  V30 46 H -0.1686 2.831 -1.8707 0
M  V30 47 H -2.3854 0.2127 -3.4495 0
M  V30 48 H -2.2768 1.3613 -2.1828 0
M  V30 49 H -1.4323 -0.6569 0.9105 0
M  V30 50 H -0.4804 3.0491 -4.5504 0
M  V30 51 H -3.489 1.337 -0.1965 0
M  V30 52 H -1.7752 1.6733 0.0113 0
M  V30 53 H 0.0479 -0.5469 -6.3272 0
M  V30 54 H -1.1718 -1.0032 -5.1179 0
M  V30 55 H -1.3122 0.5421 -6.0159 0
M  V30 56 H -2.6192 -1.0518 2.8485 0
M  V30 57 H -1.9288 1.3937 2.4355 0
M  V30 58 H -4.0733 0.8835 3.576 0
M  V30 59 H -4.3128 -2.8237 2.762 0
M  V30 60 H -4.8143 -1.6014 3.9503 0
M  V30 61 H -5.5782 -1.6841 2.3437 0
M  V30 62 H -4.2403 3.0106 1.7669 0
M  V30 63 H -2.7751 3.4789 1.2147 0
M  V30 64 H -5.2361 0.3377 1.0692 0
M  V30 END ATOM
M  V30 BEGIN BOND
M  V30 1 2 1 2
M  V30 2 1 2 3
M  V30 3 1 2 4
M  V30 4 2 3 5
M  V30 5 1 3 6
M  V30 6 2 4 7
M  V30 7 1 4 8
M  V30 8 1 5 9
M  V30 9 1 5 10
M  V30 10 1 6 11
M  V30 11 2 6 12
M  V30 12 1 7 13
M  V30 13 1 7 14
M  V30 14 2 8 15
M  V30 15 2 10 16
M  V30 16 1 10 17
M  V30 17 2 11 18
M  V30 18 1 12 19
M  V30 19 2 14 20
M  V30 20 1 16 21
M  V30 21 1 17 22
M  V30 22 1 17 23
M  V30 23 1 21 24
M  V30 24 1 22 25
M  V30 25 1 24 26
M  V30 26 1 24 27
M  V30 27 1 25 28
M  V30 28 1 25 29
M  V30 29 2 27 30
M  V30 30 1 27 31
M  V30 31 1 28 32
M  V30 32 1 29 33
M  V30 33 1 32 34
M  V30 34 1 32 35
M  V30 35 1 33 36
M  V30 36 1 34 37
M  V30 37 1 8 11
M  V30 38 1 12 16
M  V30 39 1 15 20
M  V30 40 1 23 24
M  V30 41 1 33 34
M  V30 42 1 9 38
M  V30 43 1 13 39
M  V30 44 1 14 40
M  V30 45 1 15 41
M  V30 46 1 17 42
M  V30 47 1 19 43
M  V30 48 1 20 44
M  V30 49 1 21 45
M  V30 50 1 21 46
M  V30 51 1 23 47
M  V30 52 1 23 48
M  V30 53 1 25 49
M  V30 54 1 26 50
M  V30 55 1 29 51
M  V30 56 1 29 52
M  V30 57 1 31 53
M  V30 58 1 31 54
M  V30 59 1 31 55
M  V30 60 1 32 56
M  V30 61 1 33 57
M  V30 62 1 34 58
M  V30 63 1 35 59
M  V30 64 1 35 60
M  V30 65 1 35 61
M  V30 66 1 36 62
M  V30 67 1 36 63
M  V30 68 1 37 64
M  V30 END BOND
M  V30 BEGIN COLLECTION
M  V30 MDLV30/STEABS ATOMS=(1 24)
M  V30 END COLLECTION
M  V30 END CTAB
M  END
>  <level_0>
1213

>  <index>
1213

>  <NO.>
1214

>  <Name>
50935-04-1

>  <SMILES>
CC(=O)[C@]1(O)Cc2c(O)c3c(c(O)c2C(OC2CC(N)C(O)C(C)O2)C1)C(=O)c1c(O)cccc1C3=O

>  <logBB>


>  <Class>
-1

>  <MW>
513.16

>  <nHBAcc>
11

>  <nHBDon>
6

>  <SLogP>
0.73

>  <TopoPSA>
196.84

>  <MMFF94 Energy>
117.43

$$$$
CC(C)(C(=O)O)c1ccc(C(=O)CCCN2CCC(OC(c3ccccc3)c3ccccc3)CC2)cc1
Actelion Java MolfileCreator 2.0

  0  0  0  0  0  0              0 V3000
M  V30 BEGIN CTAB
M  V30 COUNTS 74 77 0 0 0
M  V30 BEGIN ATOM
M  V30 1 O -10.2227 3.505 1.5123 0
M  V30 2 C -9.3564 2.8848 2.11 0
M  V30 3 O -9.5367 1.5717 2.368 0
M  V30 4 C -8.0086 3.4294 2.6023 0
M  V30 5 C -6.8533 2.8285 1.7818 0
M  V30 6 C -7.9347 3.1472 4.1189 0
M  V30 7 C -7.9945 4.9641 2.4279 0
M  V30 8 C -6.8815 2.9083 0.3765 0
M  V30 9 C -5.7446 2.203 2.3739 0
M  V30 10 C -5.8482 2.3778 -0.4019 0
M  V30 11 C -4.7074 1.67 1.5957 0
M  V30 12 C -4.7536 1.7523 0.2017 0
M  V30 13 C -3.6741 1.1997 -0.6736 0
M  V30 14 O -3.7537 1.3527 -1.8907 0
M  V30 15 C -2.5102 0.4727 -0.0201 0
M  V30 16 C -1.5311 -0.0975 -1.0497 0
M  V30 17 C -0.3528 -0.7934 -0.3566 0
M  V30 18 N 0.5336 -1.5108 -1.2903 0
M  V30 19 C 1.482 -2.3434 -0.5282 0
M  V30 20 C 1.2694 -0.5858 -2.1703 0
M  V30 21 C 2.371 -3.1663 -1.4605 0
M  V30 22 C 2.1649 -1.3439 -3.1531 0
M  V30 23 C 3.1405 -2.2714 -2.432 0
M  V30 24 O 4.0951 -1.451 -1.7498 0
M  V30 25 C 5.2836 -2.1408 -1.331 0
M  V30 26 C 6.5015 -1.5796 -2.0536 0
M  V30 27 C 5.3946 -2.025 0.1815 0
M  V30 28 C 7.672 -2.3517 -2.1504 0
M  V30 29 C 6.5031 -0.2929 -2.6163 0
M  V30 30 C 5.2047 -0.7944 0.8312 0
M  V30 31 C 5.7023 -3.1534 0.9588 0
M  V30 32 C 8.8041 -1.8552 -2.7998 0
M  V30 33 C 7.6355 0.2019 -3.266 0
M  V30 34 C 5.3128 -0.6959 2.2192 0
M  V30 35 C 5.8099 -3.0531 2.3474 0
M  V30 36 C 8.7847 -0.5794 -3.3584 0
M  V30 37 C 5.6147 -1.8252 2.9766 0
M  V30 38 H -10.4046 1.3661 1.962 0
M  V30 39 H -7.8888 2.0733 4.3342 0
M  V30 40 H -7.0567 3.6184 4.5757 0
M  V30 41 H -8.821 3.5371 4.6346 0
M  V30 42 H -8.7983 5.4357 3.0061 0
M  V30 43 H -7.0431 5.3933 2.7636 0
M  V30 44 H -8.1396 5.2633 1.3833 0
M  V30 45 H -7.7146 3.3882 -0.1367 0
M  V30 46 H -5.6581 2.1131 3.4541 0
M  V30 47 H -5.9064 2.4576 -1.4864 0
M  V30 48 H -3.8764 1.198 2.1113 0
M  V30 49 H -1.981 1.1807 0.6275 0
M  V30 50 H -2.9083 -0.348 0.5868 0
M  V30 51 H -2.0565 -0.8091 -1.6991 0
M  V30 52 H -1.1744 0.7178 -1.6889 0
M  V30 53 H 0.2147 -0.0641 0.2363 0
M  V30 54 H -0.7739 -1.5185 0.3522 0
M  V30 55 H 2.0994 -1.7259 0.1367 0
M  V30 56 H 0.9274 -3.0452 0.1069 0
M  V30 57 H 1.8707 0.1189 -1.5811 0
M  V30 58 H 0.5713 0.0076 -2.7698 0
M  V30 59 H 1.7485 -3.8688 -2.0294 0
M  V30 60 H 3.0554 -3.7669 -0.8526 0
M  V30 61 H 1.5389 -1.93 -3.8377 0
M  V30 62 H 2.7192 -0.6152 -3.7568 0
M  V30 63 H 3.6619 -2.878 -3.1827 0
M  V30 64 H 5.2031 -3.2019 -1.6034 0
M  V30 65 H 7.7101 -3.347 -1.7136 0
M  V30 66 H 5.6163 0.3342 -2.5499 0
M  V30 67 H 4.9674 0.0943 0.2497 0
M  V30 68 H 5.8607 -4.1204 0.4873 0
M  V30 69 H 9.7025 -2.4629 -2.8659 0
M  V30 70 H 7.6192 1.1993 -3.6973 0
M  V30 71 H 5.1634 0.2636 2.7068 0
M  V30 72 H 6.0488 -3.9331 2.9388 0
M  V30 73 H 9.6661 -0.1922 -3.8623 0
M  V30 74 H 5.7011 -1.7474 4.057 0
M  V30 END ATOM
M  V30 BEGIN BOND
M  V30 1 2 1 2
M  V30 2 1 2 3
M  V30 3 1 2 4
M  V30 4 1 4 5
M  V30 5 1 4 6
M  V30 6 1 4 7
M  V30 7 2 5 8
M  V30 8 1 5 9
M  V30 9 1 8 10
M  V30 10 2 9 11
M  V30 11 2 10 12
M  V30 12 1 12 13
M  V30 13 2 13 14
M  V30 14 1 13 15
M  V30 15 1 15 16
M  V30 16 1 16 17
M  V30 17 1 17 18
M  V30 18 1 18 19
M  V30 19 1 18 20
M  V30 20 1 19 21
M  V30 21 1 20 22
M  V30 22 1 21 23
M  V30 23 1 23 24
M  V30 24 1 24 25
M  V30 25 1 25 26
M  V30 26 1 25 27
M  V30 27 2 26 28
M  V30 28 1 26 29
M  V30 29 2 27 30
M  V30 30 1 27 31
M  V30 31 1 28 32
M  V30 32 2 29 33
M  V30 33 1 30 34
M  V30 34 2 31 35
M  V30 35 2 32 36
M  V30 36 2 34 37
M  V30 37 1 11 12
M  V30 38 1 22 23
M  V30 39 1 33 36
M  V30 40 1 35 37
M  V30 41 1 3 38
M  V30 42 1 6 39
M  V30 43 1 6 40
M  V30 44 1 6 41
M  V30 45 1 7 42
M  V30 46 1 7 43
M  V30 47 1 7 44
M  V30 48 1 8 45
M  V30 49 1 9 46
M  V30 50 1 10 47
M  V30 51 1 11 48
M  V30 52 1 15 49
M  V30 53 1 15 50
M  V30 54 1 16 51
M  V30 55 1 16 52
M  V30 56 1 17 53
M  V30 57 1 17 54
M  V30 58 1 19 55
M  V30 59 1 19 56
M  V30 60 1 20 57
M  V30 61 1 20 58
M  V30 62 1 21 59
M  V30 63 1 21 60
M  V30 64 1 22 61
M  V30 65 1 22 62
M  V30 66 1 23 63
M  V30 67 1 25 64
M  V30 68 1 28 65
M  V30 69 1 29 66
M  V30 70 1 30 67
M  V30 71 1 31 68
M  V30 72 1 32 69
M  V30 73 1 33 70
M  V30 74 1 34 71
M  V30 75 1 35 72
M  V30 76 1 36 73
M  V30 77 1 37 74
M  V30 END BOND
M  V30 END CTAB
M  END
>  <level_0>
1220

>  <index>
1220

>  <NO.>
1221

>  <Name>
clomipramine

>  <SMILES>
CC(C)(C(=O)O)c1ccc(C(=O)CCCN2CCC(OC(c3ccccc3)c3ccccc3)CC2)cc1

>  <logBB>


>  <Class>
-1

>  <MW>
499.27

>  <nHBAcc>
4

>  <nHBDon>
1

>  <SLogP>
6.28

>  <TopoPSA>
66.84

>  <MMFF94 Energy>
104.66

$$$$
CC(C)(C)c1ccc(C(=O)CCCN2CCC(OC(c3ccccc3)c3ccccc3)CC2)cc1
Actelion Java MolfileCreator 2.0

  0  0  0  0  0  0              0 V3000
M  V30 BEGIN CTAB
M  V30 COUNTS 74 77 0 0 0
M  V30 BEGIN ATOM
M  V30 1 O -5.4057 2.0642 -1.8259 0
M  V30 2 C -4.5874 2.2803 -0.932 0
M  V30 3 C -4.999 2.1224 0.4974 0
M  V30 4 C -3.1709 2.6961 -1.2737 0
M  V30 5 C -6.3373 1.8237 0.7715 0
M  V30 6 C -4.11 2.2548 1.5647 0
M  V30 7 C -2.2505 1.4821 -1.3703 0
M  V30 8 C -6.7826 1.6638 2.0901 0
M  V30 9 C -4.5596 2.0937 2.8823 0
M  V30 10 C -0.8295 1.9039 -1.7634 0
M  V30 11 C -5.9043 1.7959 3.1764 0
M  V30 12 N 0.0749 0.7584 -1.9615 0
M  V30 13 C -6.3576 1.6257 4.6375 0
M  V30 14 C 1.2919 1.1937 -2.6664 0
M  V30 15 C 0.4107 0.0861 -0.6964 0
M  V30 16 C -7.8617 1.305 4.792 0
M  V30 17 C -5.5743 0.4673 5.2921 0
M  V30 18 C -6.0864 2.9286 5.4205 0
M  V30 19 C 2.232 0.0243 -2.9482 0
M  V30 20 C 1.3291 -1.1114 -0.926 0
M  V30 21 C 2.6032 -0.6967 -1.6549 0
M  V30 22 O 3.3503 -1.8835 -1.9327 0
M  V30 23 C 4.7604 -1.6666 -2.1033 0
M  V30 24 C 5.4415 -1.6888 -0.7422 0
M  V30 25 C 5.3378 -2.7047 -3.0591 0
M  V30 26 C 6.356 -0.6833 -0.3889 0
M  V30 27 C 5.1787 -2.7141 0.1807 0
M  V30 28 C 4.6701 -3.9073 -3.342 0
M  V30 29 C 6.5825 -2.4735 -3.6709 0
M  V30 30 C 6.9859 -0.7019 0.8571 0
M  V30 31 C 5.8092 -2.7308 1.4256 0
M  V30 32 C 5.2247 -4.8453 -4.2154 0
M  V30 33 C 7.1365 -3.4128 -4.5432 0
M  V30 34 C 6.712 -1.7246 1.7633 0
M  V30 35 C 6.4567 -4.5975 -4.8159 0
M  V30 36 H -3.209 3.2204 -2.2371 0
M  V30 37 H -2.8023 3.4341 -0.5542 0
M  V30 38 H -7.0514 1.7111 -0.0432 0
M  V30 39 H -3.0586 2.4754 1.4122 0
M  V30 40 H -2.2485 0.9545 -0.411 0
M  V30 41 H -2.6486 0.7791 -2.1132 0
M  V30 42 H -7.8349 1.4324 2.2334 0
M  V30 43 H -3.8331 2.2036 3.6857 0
M  V30 44 H -0.9079 2.4637 -2.7048 0
M  V30 45 H -0.4199 2.5971 -1.0171 0
M  V30 46 H 1.8218 1.9607 -2.0858 0
M  V30 47 H 1.0211 1.6447 -3.629 0
M  V30 48 H 0.8879 0.7878 2.0E-4 0
M  V30 49 H -0.4941 -0.2904 -0.2085 0
M  V30 50 H -8.1279 0.367 4.291 0
M  V30 51 H -8.1357 1.1946 5.8483 0
M  V30 52 H -8.4891 2.1035 4.3787 0
M  V30 53 H -4.497 0.6627 5.3265 0
M  V30 54 H -5.9029 0.3017 6.3249 0
M  V30 55 H -5.7214 -0.4691 4.741 0
M  V30 56 H -6.6049 3.7794 4.9623 0
M  V30 57 H -5.0198 3.1754 5.4585 0
M  V30 58 H -6.4329 2.8462 6.4575 0
M  V30 59 H 3.1313 0.3908 -3.4558 0
M  V30 60 H 1.7636 -0.6809 -3.6475 0
M  V30 61 H 1.5877 -1.5759 0.0335 0
M  V30 62 H 0.8038 -1.8874 -1.4991 0
M  V30 63 H 3.1798 -0.0297 -1.0005 0
M  V30 64 H 4.9078 -0.6867 -2.5758 0
M  V30 65 H 6.586 0.121 -1.0836 0
M  V30 66 H 4.476 -3.5054 -0.0738 0
M  V30 67 H 3.7073 -4.1203 -2.8814 0
M  V30 68 H 7.1326 -1.558 -3.4656 0
M  V30 69 H 7.6937 0.0798 1.1203 0
M  V30 70 H 5.5969 -3.5316 2.129 0
M  V30 71 H 4.6928 -5.7697 -4.4245 0
M  V30 72 H 8.1002 -3.2208 -5.0072 0
M  V30 73 H 7.2048 -1.7403 2.7319 0
M  V30 74 H 6.8876 -5.3291 -5.494 0
M  V30 END ATOM
M  V30 BEGIN BOND
M  V30 1 2 1 2
M  V30 2 1 2 3
M  V30 3 1 2 4
M  V30 4 2 3 5
M  V30 5 1 3 6
M  V30 6 1 4 7
M  V30 7 1 5 8
M  V30 8 2 6 9
M  V30 9 1 7 10
M  V30 10 2 8 11
M  V30 11 1 10 12
M  V30 12 1 11 13
M  V30 13 1 12 14
M  V30 14 1 12 15
M  V30 15 1 13 16
M  V30 16 1 13 17
M  V30 17 1 13 18
M  V30 18 1 14 19
M  V30 19 1 15 20
M  V30 20 1 19 21
M  V30 21 1 21 22
M  V30 22 1 22 23
M  V30 23 1 23 24
M  V30 24 1 23 25
M  V30 25 2 24 26
M  V30 26 1 24 27
M  V30 27 2 25 28
M  V30 28 1 25 29
M  V30 29 1 26 30
M  V30 30 2 27 31
M  V30 31 1 28 32
M  V30 32 2 29 33
M  V30 33 2 30 34
M  V30 34 2 32 35
M  V30 35 1 9 11
M  V30 36 1 20 21
M  V30 37 1 31 34
M  V30 38 1 33 35
M  V30 39 1 4 36
M  V30 40 1 4 37
M  V30 41 1 5 38
M  V30 42 1 6 39
M  V30 43 1 7 40
M  V30 44 1 7 41
M  V30 45 1 8 42
M  V30 46 1 9 43
M  V30 47 1 10 44
M  V30 48 1 10 45
M  V30 49 1 14 46
M  V30 50 1 14 47
M  V30 51 1 15 48
M  V30 52 1 15 49
M  V30 53 1 16 50
M  V30 54 1 16 51
M  V30 55 1 16 52
M  V30 56 1 17 53
M  V30 57 1 17 54
M  V30 58 1 17 55
M  V30 59 1 18 56
M  V30 60 1 18 57
M  V30 61 1 18 58
M  V30 62 1 19 59
M  V30 63 1 19 60
M  V30 64 1 20 61
M  V30 65 1 20 62
M  V30 66 1 21 63
M  V30 67 1 23 64
M  V30 68 1 26 65
M  V30 69 1 27 66
M  V30 70 1 28 67
M  V30 71 1 29 68
M  V30 72 1 30 69
M  V30 73 1 31 70
M  V30 74 1 32 71
M  V30 75 1 33 72
M  V30 76 1 34 73
M  V30 77 1 35 74
M  V30 END BOND
M  V30 END CTAB
M  END
>  <level_0>
1232

>  <index>
1232

>  <NO.>
1233

>  <Name>
efavirenz

>  <SMILES>
CC(C)(C)c1ccc(C(=O)CCCN2CCC(OC(c3ccccc3)c3ccccc3)CC2)cc1

>  <logBB>


>  <Class>
-1

>  <MW>
469.3

>  <nHBAcc>
3

>  <nHBDon>
0

>  <SLogP>
7.22

>  <TopoPSA>
29.54

>  <MMFF94 Energy>
111.46

$$$$
CC(C)(C)c1ccc(C(O)CCCN2CCC(C(O)(c3ccccc3)c3ccccc3)CC2)cc1
Actelion Java MolfileCreator 2.0

  0  0  0  0  0  0              0 V3000
M  V30 BEGIN CTAB
M  V30 COUNTS 76 79 0 0 0
M  V30 BEGIN ATOM
M  V30 1 O 2.459 4.0479 -1.5066 0
M  V30 2 C 1.4815 4.0883 -0.4467 0
M  V30 3 C 2.2605 4.0417 0.8877 0
M  V30 4 C 0.7096 5.4219 -0.5298 0
M  V30 5 C 0.5172 2.8697 -0.7075 0
M  V30 6 C 1.803 3.3449 2.0198 0
M  V30 7 C 3.455 4.7809 1.0192 0
M  V30 8 C 0.9959 6.3785 -1.5204 0
M  V30 9 C -0.3123 5.7196 0.3927 0
M  V30 10 C -0.2474 2.9926 -2.0463 0
M  V30 11 C 1.2508 1.5095 -0.7367 0
M  V30 12 C 2.53 3.3496 3.2144 0
M  V30 13 C 4.1802 4.7865 2.2124 0
M  V30 14 C 0.2876 7.5809 -1.5892 0
M  V30 15 C -1.0192 6.9228 0.3237 0
M  V30 16 C -1.1678 1.7934 -2.2802 0
M  V30 17 C 0.2824 0.3515 -0.9925 0
M  V30 18 C 3.7198 4.0652 3.3086 0
M  V30 19 C -0.7194 7.8524 -0.6676 0
M  V30 20 N -0.4276 0.5229 -2.2656 0
M  V30 21 C -1.3555 -0.5948 -2.5372 0
M  V30 22 C -0.6207 -1.9072 -2.8402 0
M  V30 23 C -1.5258 -3.0205 -3.39 0
M  V30 24 C -2.6054 -3.5713 -2.4468 0 CFG=2
M  V30 25 O -3.5903 -2.5772 -2.1774 0
M  V30 26 C -2.0607 -4.1778 -1.1702 0
M  V30 27 C -1.9688 -3.4476 0.0191 0
M  V30 28 C -1.6073 -5.5016 -1.1666 0
M  V30 29 C -1.4477 -4.0305 1.1792 0
M  V30 30 C -1.0862 -6.0835 -0.0037 0
M  V30 31 C -0.9952 -5.3626 1.1965 0
M  V30 32 C -0.4253 -5.9686 2.4907 0
M  V30 33 C 0.8085 -5.1583 2.943 0
M  V30 34 C -1.4971 -5.9241 3.6013 0
M  V30 35 C 0.022 -7.4408 2.3471 0
M  V30 36 H 3.1485 3.4223 -1.229 0
M  V30 37 H -0.239 2.8311 0.088 0
M  V30 38 H 0.8692 2.7901 2.0003 0
M  V30 39 H 3.8211 5.3761 0.1832 0
M  V30 40 H 1.7755 6.191 -2.256 0
M  V30 41 H -0.5649 5.0161 1.1821 0
M  V30 42 H -0.8649 3.8972 -2.0586 0
M  V30 43 H 0.4582 3.0765 -2.8826 0
M  V30 44 H 2.0188 1.5053 -1.5205 0
M  V30 45 H 1.769 1.3195 0.2077 0
M  V30 46 H 2.1604 2.799 4.0759 0
M  V30 47 H 5.0981 5.3638 2.2858 0
M  V30 48 H 0.5255 8.3037 -2.365 0
M  V30 49 H -1.8019 7.1343 1.0473 0
M  V30 50 H -1.9627 1.7891 -1.5224 0
M  V30 51 H -1.6512 1.9283 -3.2556 0
M  V30 52 H 0.8781 -0.567 -1.0063 0
M  V30 53 H -0.4237 0.2693 -0.1559 0
M  V30 54 H 4.2805 4.0717 4.2394 0
M  V30 55 H -1.2683 8.7885 -0.7214 0
M  V30 56 H -1.9616 -0.3467 -3.418 0
M  V30 57 H -2.0436 -0.7157 -1.6942 0
M  V30 58 H -0.094 -2.2745 -1.9538 0
M  V30 59 H 0.151 -1.7096 -3.5959 0
M  V30 60 H -0.8781 -3.8488 -3.7051 0
M  V30 61 H -2.0153 -2.6417 -4.2965 0
M  V30 62 H -3.1418 -4.3617 -2.9875 0
M  V30 63 H -4.1805 -2.9504 -1.4995 0
M  V30 64 H -2.2932 -2.4098 0.0551 0
M  V30 65 H -1.6521 -6.0988 -2.0754 0
M  V30 66 H -1.3965 -3.4183 2.0772 0
M  V30 67 H -0.7526 -7.1153 -0.0711 0
M  V30 68 H 0.5583 -4.1175 3.1763 0
M  V30 69 H 1.2557 -5.5902 3.846 0
M  V30 70 H 1.5789 -5.1445 2.163 0
M  V30 71 H -2.4014 -6.4654 3.2986 0
M  V30 72 H -1.1276 -6.3828 4.5258 0
M  V30 73 H -1.7949 -4.8996 3.8496 0
M  V30 74 H 0.8155 -7.5503 1.5988 0
M  V30 75 H -0.8127 -8.0896 2.0578 0
M  V30 76 H 0.4174 -7.8276 3.294 0
M  V30 END ATOM
M  V30 BEGIN BOND
M  V30 1 1 1 2
M  V30 2 1 2 3
M  V30 3 1 2 4
M  V30 4 1 2 5
M  V30 5 2 3 6
M  V30 6 1 3 7
M  V30 7 2 4 8
M  V30 8 1 4 9
M  V30 9 1 5 10
M  V30 10 1 5 11
M  V30 11 1 6 12
M  V30 12 2 7 13
M  V30 13 1 8 14
M  V30 14 2 9 15
M  V30 15 1 10 16
M  V30 16 1 11 17
M  V30 17 2 12 18
M  V30 18 2 14 19
M  V30 19 1 16 20
M  V30 20 1 20 21
M  V30 21 1 21 22
M  V30 22 1 22 23
M  V30 23 1 23 24
M  V30 24 1 24 25
M  V30 25 1 24 26
M  V30 26 2 26 27
M  V30 27 1 26 28
M  V30 28 1 27 29
M  V30 29 2 28 30
M  V30 30 2 29 31
M  V30 31 1 31 32
M  V30 32 1 32 33
M  V30 33 1 32 34
M  V30 34 1 32 35
M  V30 35 1 13 18
M  V30 36 1 15 19
M  V30 37 1 17 20
M  V30 38 1 30 31
M  V30 39 1 1 36
M  V30 40 1 5 37
M  V30 41 1 6 38
M  V30 42 1 7 39
M  V30 43 1 8 40
M  V30 44 1 9 41
M  V30 45 1 10 42
M  V30 46 1 10 43
M  V30 47 1 11 44
M  V30 48 1 11 45
M  V30 49 1 12 46
M  V30 50 1 13 47
M  V30 51 1 14 48
M  V30 52 1 15 49
M  V30 53 1 16 50
M  V30 54 1 16 51
M  V30 55 1 17 52
M  V30 56 1 17 53
M  V30 57 1 18 54
M  V30 58 1 19 55
M  V30 59 1 21 56
M  V30 60 1 21 57
M  V30 61 1 22 58
M  V30 62 1 22 59
M  V30 63 1 23 60
M  V30 64 1 23 61
M  V30 65 1 24 62
M  V30 66 1 25 63
M  V30 67 1 27 64
M  V30 68 1 28 65
M  V30 69 1 29 66
M  V30 70 1 30 67
M  V30 71 1 33 68
M  V30 72 1 33 69
M  V30 73 1 33 70
M  V30 74 1 34 71
M  V30 75 1 34 72
M  V30 76 1 34 73
M  V30 77 1 35 74
M  V30 78 1 35 75
M  V30 79 1 35 76
M  V30 END BOND
M  V30 BEGIN COLLECTION
M  V30 MDLV30/STERAC1 ATOMS=(1 24)
M  V30 END COLLECTION
M  V30 END CTAB
M  END
>  <level_0>
1233

>  <index>
1233

>  <NO.>
1234

>  <Name>
terfenadine

>  <SMILES>
CC(C)(C)c1ccc(C(O)CCCN2CCC(C(O)(c3ccccc3)c3ccccc3)CC2)cc1

>  <logBB>


>  <Class>
-1

>  <MW>
471.31

>  <nHBAcc>
3

>  <nHBDon>
2

>  <SLogP>
6.45

>  <TopoPSA>
43.7

>  <MMFF94 Energy>
101.64

$$$$
CC(C)(C)c1ccc(CN2CCN(C(c3ccccc3)c3ccc(Cl)cc3)CC2)cc1
Actelion Java MolfileCreator 2.0

  0  0  0  0  0  0              0 V3000
M  V30 BEGIN CTAB
M  V30 COUNTS 64 67 0 0 0
M  V30 BEGIN ATOM
M  V30 1 Cl -6.6535 -3.1221 -2.0005 0
M  V30 2 C -5.4261 -2.6663 -0.8841 0
M  V30 3 C -5.448 -1.3978 -0.3112 0
M  V30 4 C -4.4171 -3.5696 -0.559 0
M  V30 5 C -4.4507 -1.0293 0.5945 0
M  V30 6 C -3.4188 -3.2009 0.3465 0
M  V30 7 C -3.4173 -1.9223 0.9316 0
M  V30 8 C -2.3226 -1.5454 1.9421 0 CFG=1
M  V30 9 N -1.7374 -0.1904 1.7093 0
M  V30 10 C -2.8585 -1.7503 3.3658 0
M  V30 11 C -1.1731 -0.0737 0.3414 0
M  V30 12 C -0.6646 0.1114 2.6885 0
M  V30 13 C -2.5365 -2.9215 4.0732 0
M  V30 14 C -3.6974 -0.8063 3.9835 0
M  V30 15 C -0.4744 1.284 0.0928 0
M  V30 16 C 0.0313 1.4678 2.4209 0
M  V30 17 C -3.0292 -3.1344 5.3624 0
M  V30 18 C -4.1882 -1.021 5.2724 0
M  V30 19 N 0.5855 1.6245 1.0627 0
M  V30 20 C -3.8535 -2.1843 5.9612 0
M  V30 21 C 1.8034 0.8165 0.8872 0
M  V30 22 C 2.5372 1.103 -0.4057 0
M  V30 23 C 2.9516 2.4014 -0.72 0
M  V30 24 C 2.8366 0.074 -1.3023 0
M  V30 25 C 3.6417 2.6684 -1.9084 0
M  V30 26 C 3.5271 0.3436 -2.489 0
M  V30 27 C 3.9456 1.6465 -2.8212 0
M  V30 28 C 4.7003 1.9042 -4.1366 0
M  V30 29 C 5.09 3.3838 -4.354 0
M  V30 30 C 6.0063 1.0811 -4.1557 0
M  V30 31 C 3.8179 1.4846 -5.332 0
M  V30 32 H -6.2351 -0.692 -0.5614 0
M  V30 33 H -4.404 -4.5614 -1.0022 0
M  V30 34 H -4.4744 -0.034 1.0338 0
M  V30 35 H -2.6437 -3.9217 0.5967 0
M  V30 36 H -1.4982 -2.2609 1.8032 0
M  V30 37 H -1.9684 -0.1561 -0.4069 0
M  V30 38 H -0.4654 -0.8895 0.1467 0
M  V30 39 H 0.0867 -0.6886 2.6928 0
M  V30 40 H -1.0763 0.1688 3.7016 0
M  V30 41 H -1.9013 -3.68 3.6223 0
M  V30 42 H -3.9633 0.1098 3.4611 0
M  V30 43 H -0.0935 1.3147 -0.9344 0
M  V30 44 H -1.2345 2.0762 0.1361 0
M  V30 45 H 0.8153 1.6315 3.1708 0
M  V30 46 H -0.6986 2.2722 2.5844 0
M  V30 47 H -2.7732 -4.0445 5.8984 0
M  V30 48 H -4.8331 -0.2797 5.7369 0
M  V30 49 H -4.2384 -2.3518 6.9636 0
M  V30 50 H 2.5117 1.0441 1.6955 0
M  V30 51 H 1.5926 -0.2564 0.9658 0
M  V30 52 H 2.7267 3.2198 -0.0383 0
M  V30 53 H 2.5349 -0.9483 -1.0894 0
M  V30 54 H 3.9284 3.6997 -2.0934 0
M  V30 55 H 3.735 -0.4889 -3.1574 0
M  V30 56 H 5.7505 3.7483 -3.5586 0
M  V30 57 H 5.6247 3.5163 -5.3022 0
M  V30 58 H 4.2071 4.0328 -4.3892 0
M  V30 59 H 5.8174 0.0028 -4.1179 0
M  V30 60 H 6.5815 1.2736 -5.0689 0
M  V30 61 H 6.6441 1.3335 -3.3003 0
M  V30 62 H 2.8667 2.0301 -5.3307 0
M  V30 63 H 3.5831 0.4147 -5.3186 0
M  V30 64 H 4.3192 1.6905 -6.2848 0
M  V30 END ATOM
M  V30 BEGIN BOND
M  V30 1 1 1 2
M  V30 2 2 2 3
M  V30 3 1 2 4
M  V30 4 1 3 5
M  V30 5 2 4 6
M  V30 6 2 5 7
M  V30 7 1 7 8
M  V30 8 1 8 9
M  V30 9 1 8 10
M  V30 10 1 9 11
M  V30 11 1 9 12
M  V30 12 2 10 13
M  V30 13 1 10 14
M  V30 14 1 11 15
M  V30 15 1 12 16
M  V30 16 1 13 17
M  V30 17 2 14 18
M  V30 18 1 15 19
M  V30 19 2 17 20
M  V30 20 1 19 21
M  V30 21 1 21 22
M  V30 22 2 22 23
M  V30 23 1 22 24
M  V30 24 1 23 25
M  V30 25 2 24 26
M  V30 26 2 25 27
M  V30 27 1 27 28
M  V30 28 1 28 29
M  V30 29 1 28 30
M  V30 30 1 28 31
M  V30 31 1 6 7
M  V30 32 1 16 19
M  V30 33 1 18 20
M  V30 34 1 26 27
M  V30 35 1 3 32
M  V30 36 1 4 33
M  V30 37 1 5 34
M  V30 38 1 6 35
M  V30 39 1 8 36
M  V30 40 1 11 37
M  V30 41 1 11 38
M  V30 42 1 12 39
M  V30 43 1 12 40
M  V30 44 1 13 41
M  V30 45 1 14 42
M  V30 46 1 15 43
M  V30 47 1 15 44
M  V30 48 1 16 45
M  V30 49 1 16 46
M  V30 50 1 17 47
M  V30 51 1 18 48
M  V30 52 1 20 49
M  V30 53 1 21 50
M  V30 54 1 21 51
M  V30 55 1 23 52
M  V30 56 1 24 53
M  V30 57 1 25 54
M  V30 58 1 26 55
M  V30 59 1 29 56
M  V30 60 1 29 57
M  V30 61 1 29 58
M  V30 62 1 30 59
M  V30 63 1 30 60
M  V30 64 1 30 61
M  V30 65 1 31 62
M  V30 66 1 31 63
M  V30 67 1 31 64
M  V30 END BOND
M  V30 BEGIN COLLECTION
M  V30 MDLV30/STERAC1 ATOMS=(1 8)
M  V30 END COLLECTION
M  V30 END CTAB
M  END
>  <level_0>
1234

>  <index>
1234

>  <NO.>
1235

>  <Name>
buclizine

>  <SMILES>
CC(C)(C)c1ccc(CN2CCN(C(c3ccccc3)c3ccc(Cl)cc3)CC2)cc1

>  <logBB>


>  <Class>
1

>  <MW>
432.23

>  <nHBAcc>
2

>  <nHBDon>
0

>  <SLogP>
6.54

>  <TopoPSA>
6.48

>  <MMFF94 Energy>
152.3

$$$$
CC(C)(CO)[C@@H](O)C(=O)NCCCC(=O)O
Actelion Java MolfileCreator 2.0

  0  0  0  0  0  0              0 V3000
M  V30 BEGIN CTAB
M  V30 COUNTS 35 34 0 0 0
M  V30 BEGIN ATOM
M  V30 1 O -1.0852 0.2324 -1.7058 0
M  V30 2 C -0.3519 -0.0099 -0.7479 0
M  V30 3 N -0.7763 0.0098 0.5614 0
M  V30 4 C 1.1444 -0.3187 -0.9497 0 CFG=2
M  V30 5 C -2.1512 0.2866 0.9204 0
M  V30 6 O 1.591 0.4 -2.1094 0
M  V30 7 C 1.4586 -1.8333 -1.1068 0
M  V30 8 C -2.4735 1.7789 0.9266 0
M  V30 9 C 2.9932 -2.0162 -1.1614 0
M  V30 10 C 0.9017 -2.6494 0.077 0
M  V30 11 C 0.8684 -2.3972 -2.4149 0
M  V30 12 C -1.6607 2.5464 1.9682 0
M  V30 13 O 3.5881 -1.6215 0.072 0
M  V30 14 C -2.0583 3.996 2.0207 0
M  V30 15 O -3.0131 4.5258 1.4802 0
M  V30 16 O -1.2233 4.716 2.796 0
M  V30 17 H -0.1071 -0.1754 1.2993 0
M  V30 18 H 1.6889 0.0994 -0.0949 0
M  V30 19 H -2.3233 -0.149 1.9104 0
M  V30 20 H -2.8069 -0.2273 0.2086 0
M  V30 21 H 0.8041 0.4887 -2.6866 0
M  V30 22 H -3.544 1.9029 1.1327 0
M  V30 23 H -2.295 2.2098 -0.0664 0
M  V30 24 H 3.2548 -3.0665 -1.334 0
M  V30 25 H 3.4392 -1.4226 -1.9669 0
M  V30 26 H -0.1932 -2.6768 0.0691 0
M  V30 27 H 1.222 -2.2355 1.0393 0
M  V30 28 H 1.2468 -3.689 0.0326 0
M  V30 29 H -0.2219 -2.2986 -2.4384 0
M  V30 30 H 1.1009 -3.4632 -2.522 0
M  V30 31 H 1.272 -1.8861 -3.2956 0
M  V30 32 H -1.8184 2.1158 2.9631 0
M  V30 33 H -0.5946 2.4947 1.7216 0
M  V30 34 H 4.5521 -1.6544 -0.0607 0
M  V30 35 H -1.5838 5.6267 2.7489 0
M  V30 END ATOM
M  V30 BEGIN BOND
M  V30 1 2 1 2
M  V30 2 1 2 3
M  V30 3 1 2 4
M  V30 4 1 3 5
M  V30 5 1 4 6
M  V30 6 1 4 7
M  V30 7 1 5 8
M  V30 8 1 7 9
M  V30 9 1 7 10
M  V30 10 1 7 11
M  V30 11 1 8 12
M  V30 12 1 9 13
M  V30 13 1 12 14
M  V30 14 2 14 15
M  V30 15 1 14 16
M  V30 16 1 3 17
M  V30 17 1 4 18
M  V30 18 1 5 19
M  V30 19 1 5 20
M  V30 20 1 6 21
M  V30 21 1 8 22
M  V30 22 1 8 23
M  V30 23 1 9 24
M  V30 24 1 9 25
M  V30 25 1 10 26
M  V30 26 1 10 27
M  V30 27 1 10 28
M  V30 28 1 11 29
M  V30 29 1 11 30
M  V30 30 1 11 31
M  V30 31 1 12 32
M  V30 32 1 12 33
M  V30 33 1 13 34
M  V30 34 1 16 35
M  V30 END BOND
M  V30 BEGIN COLLECTION
M  V30 MDLV30/STEABS ATOMS=(1 4)
M  V30 END COLLECTION
M  V30 END CTAB
M  END
>  <level_0>
1235

>  <index>
1235

>  <NO.>
1236

>  <Name>
hopantenic acid

>  <SMILES>
CC(C)(CO)[C@@H](O)C(=O)NCCCC(=O)O

>  <logBB>


>  <Class>
1

>  <MW>
233.13

>  <nHBAcc>
4

>  <nHBDon>
4

>  <SLogP>
-0.65

>  <TopoPSA>
106.86

>  <MMFF94 Energy>
-9.1636

$$$$
CC(C)C1NC(=O)[C@@H](C(C)C)OC(=O)[C@H](C(C)C)NC(=O)[C@H](C)OC(=O)[C@@H](C(C)C)NC(=O)[C@@H](C(C)C)OC(=O)[C@H](C(C)C)NC(=O)[C@H](C)OC(=O)[C@@H](C(C)C)NC(=O)[C@@H](C(C)C)OC(=O)[C@H](C(C)C)NC(=O)[C@H](C)OC1=O
Actelion Java MolfileCreator 2.0

  0  0  0  0  0  0              0 V3000
M  V30 BEGIN CTAB
M  V30 COUNTS 168 168 0 0 0
M  V30 BEGIN ATOM
M  V30 1 O -2.7545 -5.2781 -2.9909 0
M  V30 2 C -2.1195 -4.3754 -2.4566 0
M  V30 3 O -0.7546 -4.2832 -2.5051 0
M  V30 4 C -2.7483 -3.3054 -1.5236 0 CFG=1
M  V30 5 C -0.0858 -5.2613 -3.3258 0 CFG=1
M  V30 6 N -1.8079 -2.22 -1.2219 0
M  V30 7 C -4.1497 -2.8328 -2.0031 0
M  V30 8 C 0.9435 -4.4993 -4.1794 0
M  V30 9 C 0.5988 -6.3247 -2.433 0
M  V30 10 C -1.3432 -1.3474 -2.1763 0
M  V30 11 C -5.2133 -3.9271 -1.8116 0
M  V30 12 C -4.6401 -1.5857 -1.2571 0
M  V30 13 O 0.9896 -4.6124 -5.4021 0
M  V30 14 N 1.8383 -3.7318 -3.4702 0
M  V30 15 C -0.378 -6.9672 -1.4425 0
M  V30 16 C 1.2519 -7.4218 -3.2788 0
M  V30 17 O -1.7806 -1.3621 -3.3282 0
M  V30 18 C -0.2535 -0.3298 -1.7518 0 CFG=1
M  V30 19 C 2.9377 -2.9897 -4.0929 0
M  V30 20 O -0.6689 1.0422 -1.8332 0
M  V30 21 C 0.4532 -0.6011 -0.43 0
M  V30 22 C 3.2721 -1.7888 -3.1971 0
M  V30 23 C 4.2177 -3.8388 -4.308 0
M  V30 24 C -1.7295 1.3978 -1.0742 0
M  V30 25 O 2.9286 -1.6893 -2.0242 0
M  V30 26 O 4.0546 -0.8932 -3.8573 0
M  V30 27 C 4.6425 -4.6122 -3.0547 0
M  V30 28 C 4.0973 -4.7949 -5.4957 0
M  V30 29 O -2.3265 0.6571 -0.2971 0
M  V30 30 C -2.1088 2.8697 -1.2818 0 CFG=2
M  V30 31 C 4.463 0.2535 -3.0889 0 CFG=2
M  V30 32 N -2.9401 3.1888 -0.1139 0
M  V30 33 C -2.8625 3.1581 -2.5929 0
M  V30 34 C 3.3099 1.2701 -2.9663 0
M  V30 35 C 5.6482 0.8459 -3.8389 0
M  V30 36 C -2.4504 3.8478 0.9886 0
M  V30 37 C -1.9196 3.1569 -3.7991 0
M  V30 38 C -4.0365 2.2092 -2.8504 0
M  V30 39 O 2.2872 1.1755 -3.6501 0
M  V30 40 N 3.3838 2.3082 -2.0864 0
M  V30 41 O -1.4128 4.5009 0.9773 0
M  V30 42 C -3.3075 3.6795 2.2542 0 CFG=2
M  V30 43 C 4.4519 2.698 -1.1504 0 CFG=2
M  V30 44 O -3.7599 2.3127 2.3476 0
M  V30 45 C -4.5059 4.653 2.2863 0
M  V30 46 C 3.9 3.0699 0.2462 0
M  V30 47 C 5.29 3.8434 -1.7756 0
M  V30 48 C -2.8332 1.4145 2.7932 0
M  V30 49 C -5.5732 4.376 1.2232 0
M  V30 50 C -5.1658 4.6234 3.6704 0
M  V30 51 O 4.6102 3.422 1.1793 0
M  V30 52 O 2.5381 2.9828 0.2842 0
M  V30 53 C 4.5942 5.2064 -1.7328 0
M  V30 54 C 6.6842 3.9422 -1.1504 0
M  V30 55 O -1.6959 1.7159 3.1539 0
M  V30 56 C -3.3812 -0.0319 2.771 0 CFG=1
M  V30 57 C 1.8644 3.061 1.565 0 CFG=1
M  V30 58 N -2.367 -0.888 3.4012 0
M  V30 59 C -4.7328 -0.2517 3.4882 0
M  V30 60 C 2.2145 1.8213 2.4328 0
M  V30 61 C 2.0636 4.4214 2.2899 0
M  V30 62 C -1.7433 -1.944 2.7695 0
M  V30 63 C -4.7834 0.366 4.8886 0
M  V30 64 C -5.9293 0.2134 2.6552 0
M  V30 65 O 3.2282 1.1502 2.2598 0
M  V30 66 N 1.2746 1.5048 3.3936 0
M  V30 67 C 1.8795 5.6042 1.3314 0
M  V30 68 C 1.1281 4.6084 3.4903 0
M  V30 69 O -2.0383 -2.3379 1.6454 0
M  V30 70 C -0.6647 -2.6154 3.6383 0 CFG=1
M  V30 71 C 1.3889 0.3733 4.3211 0 CFG=1
M  V30 72 O 0.0502 -1.5935 4.3567 0
M  V30 73 C -1.32 -3.5305 4.6619 0
M  V30 74 C 0.9536 -0.9061 3.5891 0
M  V30 75 C 2.7467 0.21 5.0414 0
M  V30 76 O 1.2956 -1.2533 2.4692 0
M  V30 77 C 3.188 1.5138 5.7172 0
M  V30 78 C 2.6821 -0.8968 6.1032 0
M  V30 79 H -2.8709 -3.8204 -0.5611 0
M  V30 80 H -0.7763 -5.7421 -4.0299 0
M  V30 81 H -1.6137 -2.0533 -0.235 0
M  V30 82 H -4.107 -2.594 -3.0731 0
M  V30 83 H 1.3828 -5.8448 -1.8332 0
M  V30 84 H -5.2709 -4.2434 -0.7643 0
M  V30 85 H -6.2037 -3.561 -2.1053 0
M  V30 86 H -5.0143 -4.81 -2.4224 0
M  V30 87 H -4.0417 -0.7116 -1.5164 0
M  V30 88 H -5.6746 -1.3457 -1.5267 0
M  V30 89 H -4.5986 -1.729 -0.1723 0
M  V30 90 H 1.6678 -3.5748 -2.48 0
M  V30 91 H -1.2176 -7.4398 -1.9629 0
M  V30 92 H 0.1242 -7.7376 -0.8472 0
M  V30 93 H -0.7774 -6.2284 -0.7406 0
M  V30 94 H 2.0253 -7.0137 -3.9348 0
M  V30 95 H 0.5115 -7.9335 -3.9032 0
M  V30 96 H 1.7304 -8.1719 -2.6398 0
M  V30 97 H 0.5091 -0.4404 -2.5316 0
M  V30 98 H 2.5706 -2.5916 -5.0469 0
M  V30 99 H -0.1966 -0.4099 0.4282 0
M  V30 100 H 0.802 -1.6363 -0.367 0
M  V30 101 H 1.3136 0.0675 -0.3177 0
M  V30 102 H 5.0407 -3.1537 -4.5532 0
M  V30 103 H 4.7838 -3.9404 -2.2022 0
M  V30 104 H 3.9028 -5.3691 -2.775 0
M  V30 105 H 5.5935 -5.128 -3.2274 0
M  V30 106 H 5.0696 -5.2472 -5.7208 0
M  V30 107 H 3.7641 -4.2649 -6.3939 0
M  V30 108 H 3.3992 -5.6113 -5.2945 0
M  V30 109 H -1.1905 3.4649 -1.2195 0
M  V30 110 H 4.7889 -0.0725 -2.095 0
M  V30 111 H -3.752 2.596 0.0284 0
M  V30 112 H -3.2781 4.1725 -2.5156 0
M  V30 113 H 5.3218 1.3482 -4.7564 0
M  V30 114 H 6.3512 0.0596 -4.1359 0
M  V30 115 H 6.1951 1.5679 -3.231 0
M  V30 116 H -1.0688 3.8257 -3.6318 0
M  V30 117 H -2.4442 3.506 -4.6953 0
M  V30 118 H -1.5327 2.156 -4.0137 0
M  V30 119 H -3.6951 1.184 -3.0242 0
M  V30 120 H -4.5938 2.5245 -3.7395 0
M  V30 121 H -4.738 2.2011 -2.0104 0
M  V30 122 H 2.5297 2.855 -2.0504 0
M  V30 123 H -2.6617 3.9103 3.1127 0
M  V30 124 H 5.0805 1.8156 -0.9965 0
M  V30 125 H -4.1267 5.6699 2.1198 0
M  V30 126 H 5.44 3.6128 -2.8379 0
M  V30 127 H -5.9469 3.3492 1.2772 0
M  V30 128 H -6.4289 5.0485 1.3515 0
M  V30 129 H -5.1852 4.549 0.2154 0
M  V30 130 H -4.4356 4.8446 4.4561 0
M  V30 131 H -5.6095 3.6453 3.8831 0
M  V30 132 H -5.9605 5.3743 3.7373 0
M  V30 133 H 4.5479 5.6041 -0.7148 0
M  V30 134 H 5.1457 5.9334 -2.3394 0
M  V30 135 H 3.5764 5.1481 -2.1312 0
M  V30 136 H 7.2 2.9773 -1.1914 0
M  V30 137 H 7.2971 4.6683 -1.6959 0
M  V30 138 H 6.6447 4.2647 -0.1059 0
M  V30 139 H -3.4682 -0.3302 1.7223 0
M  V30 140 H 0.801 2.9625 1.3132 0
M  V30 141 H -1.9829 -0.5862 4.2903 0
M  V30 142 H -4.8586 -1.3367 3.6155 0
M  V30 143 H 3.0849 4.4775 2.6834 0
M  V30 144 H -4.7137 1.4576 4.855 0
M  V30 145 H -5.7255 0.1104 5.386 0
M  V30 146 H -3.9688 -0.0078 5.517 0
M  V30 147 H -5.8747 -0.1776 1.6342 0
M  V30 148 H -6.8633 -0.15 3.0984 0
M  V30 149 H -6.0008 1.3023 2.6048 0
M  V30 150 H 0.3558 1.9409 3.3253 0
M  V30 151 H 0.8778 5.6131 0.894 0
M  V30 152 H 2.0257 6.5555 1.8548 0
M  V30 153 H 2.6004 5.5758 0.5124 0
M  V30 154 H 1.3868 3.9297 4.3075 0
M  V30 155 H 0.0827 4.4382 3.2165 0
M  V30 156 H 1.2078 5.6245 3.8928 0
M  V30 157 H 0.0107 -3.2014 3.0043 0
M  V30 158 H 0.6214 0.5885 5.0776 0
M  V30 159 H -1.973 -2.9697 5.3402 0
M  V30 160 H -0.5584 -4.0126 5.284 0
M  V30 161 H -1.9193 -4.3056 4.1739 0
M  V30 162 H 3.5206 -0.085 4.3239 0
M  V30 163 H 3.3604 2.3089 4.986 0
M  V30 164 H 4.1267 1.3699 6.2634 0
M  V30 165 H 2.4339 1.8649 6.43 0
M  V30 166 H 1.8966 -0.6958 6.8398 0
M  V30 167 H 3.6343 -0.9776 6.6389 0
M  V30 168 H 2.484 -1.8728 5.6491 0
M  V30 END ATOM
M  V30 BEGIN BOND
M  V30 1 2 1 2
M  V30 2 1 2 3
M  V30 3 1 2 4
M  V30 4 1 3 5
M  V30 5 1 4 6
M  V30 6 1 4 7
M  V30 7 1 5 8
M  V30 8 1 5 9
M  V30 9 1 6 10
M  V30 10 1 7 11
M  V30 11 1 7 12
M  V30 12 2 8 13
M  V30 13 1 8 14
M  V30 14 1 9 15
M  V30 15 1 9 16
M  V30 16 2 10 17
M  V30 17 1 10 18
M  V30 18 1 14 19
M  V30 19 1 18 20
M  V30 20 1 18 21
M  V30 21 1 19 22
M  V30 22 1 19 23
M  V30 23 1 20 24
M  V30 24 2 22 25
M  V30 25 1 22 26
M  V30 26 1 23 27
M  V30 27 1 23 28
M  V30 28 2 24 29
M  V30 29 1 24 30
M  V30 30 1 26 31
M  V30 31 1 30 32
M  V30 32 1 30 33
M  V30 33 1 31 34
M  V30 34 1 31 35
M  V30 35 1 32 36
M  V30 36 1 33 37
M  V30 37 1 33 38
M  V30 38 2 34 39
M  V30 39 1 34 40
M  V30 40 2 36 41
M  V30 41 1 36 42
M  V30 42 1 40 43
M  V30 43 1 42 44
M  V30 44 1 42 45
M  V30 45 1 43 46
M  V30 46 1 43 47
M  V30 47 1 44 48
M  V30 48 1 45 49
M  V30 49 1 45 50
M  V30 50 2 46 51
M  V30 51 1 46 52
M  V30 52 1 47 53
M  V30 53 1 47 54
M  V30 54 2 48 55
M  V30 55 1 48 56
M  V30 56 1 52 57
M  V30 57 1 56 58
M  V30 58 1 56 59
M  V30 59 1 57 60
M  V30 60 1 57 61
M  V30 61 1 58 62
M  V30 62 1 59 63
M  V30 63 1 59 64
M  V30 64 2 60 65
M  V30 65 1 60 66
M  V30 66 1 61 67
M  V30 67 1 61 68
M  V30 68 2 62 69
M  V30 69 1 62 70
M  V30 70 1 66 71
M  V30 71 1 70 72
M  V30 72 1 70 73
M  V30 73 1 71 74
M  V30 74 1 71 75
M  V30 75 2 74 76
M  V30 76 1 75 77
M  V30 77 1 75 78
M  V30 78 1 72 74
M  V30 79 1 4 79
M  V30 80 1 5 80
M  V30 81 1 6 81
M  V30 82 1 7 82
M  V30 83 1 9 83
M  V30 84 1 11 84
M  V30 85 1 11 85
M  V30 86 1 11 86
M  V30 87 1 12 87
M  V30 88 1 12 88
M  V30 89 1 12 89
M  V30 90 1 14 90
M  V30 91 1 15 91
M  V30 92 1 15 92
M  V30 93 1 15 93
M  V30 94 1 16 94
M  V30 95 1 16 95
M  V30 96 1 16 96
M  V30 97 1 18 97
M  V30 98 1 19 98
M  V30 99 1 21 99
M  V30 100 1 21 100
M  V30 101 1 21 101
M  V30 102 1 23 102
M  V30 103 1 27 103
M  V30 104 1 27 104
M  V30 105 1 27 105
M  V30 106 1 28 106
M  V30 107 1 28 107
M  V30 108 1 28 108
M  V30 109 1 30 109
M  V30 110 1 31 110
M  V30 111 1 32 111
M  V30 112 1 33 112
M  V30 113 1 35 113
M  V30 114 1 35 114
M  V30 115 1 35 115
M  V30 116 1 37 116
M  V30 117 1 37 117
M  V30 118 1 37 118
M  V30 119 1 38 119
M  V30 120 1 38 120
M  V30 121 1 38 121
M  V30 122 1 40 122
M  V30 123 1 42 123
M  V30 124 1 43 124
M  V30 125 1 45 125
M  V30 126 1 47 126
M  V30 127 1 49 127
M  V30 128 1 49 128
M  V30 129 1 49 129
M  V30 130 1 50 130
M  V30 131 1 50 131
M  V30 132 1 50 132
M  V30 133 1 53 133
M  V30 134 1 53 134
M  V30 135 1 53 135
M  V30 136 1 54 136
M  V30 137 1 54 137
M  V30 138 1 54 138
M  V30 139 1 56 139
M  V30 140 1 57 140
M  V30 141 1 58 141
M  V30 142 1 59 142
M  V30 143 1 61 143
M  V30 144 1 63 144
M  V30 145 1 63 145
M  V30 146 1 63 146
M  V30 147 1 64 147
M  V30 148 1 64 148
M  V30 149 1 64 149
M  V30 150 1 66 150
M  V30 151 1 67 151
M  V30 152 1 67 152
M  V30 153 1 67 153
M  V30 154 1 68 154
M  V30 155 1 68 155
M  V30 156 1 68 156
M  V30 157 1 70 157
M  V30 158 1 71 158
M  V30 159 1 73 159
M  V30 160 1 73 160
M  V30 161 1 73 161
M  V30 162 1 75 162
M  V30 163 1 77 163
M  V30 164 1 77 164
M  V30 165 1 77 165
M  V30 166 1 78 166
M  V30 167 1 78 167
M  V30 168 1 78 168
M  V30 END BOND
M  V30 BEGIN COLLECTION
M  V30 MDLV30/STEABS ATOMS=(11 4 5 18 30 31 42 43 56 57 70 71)
M  V30 END COLLECTION
M  V30 END CTAB
M  END
>  <level_0>
1250

>  <index>
1250

>  <NO.>
1251

>  <Name>
valinomycin

>  <SMILES>
CC(C)C1NC(=O)[C@@H](C(C)C)OC(=O)[C@H](C(C)C)NC(=O)[C@H](C)OC(=O)[C@@H](C(C)C)NC(=O)[C@@H](C(C)C)OC(=O)[C@H](C(C)C)NC(=O)[C@H](C)OC(=O)[C@@H](C(C)C)NC(=O)[C@@H](C(C)C)OC(=O)[C@H](C(C)C)NC(=O)[C@H](C)OC1=O

>  <logBB>


>  <Class>
-1

>  <MW>
1110.63

>  <nHBAcc>
18

>  <nHBDon>
6

>  <SLogP>
2.34

>  <TopoPSA>
332.4

>  <MMFF94 Energy>
184.79

$$$$
CC(C)CC1NC(=O)C(CCCN)NC(=O)C(C(C)C)NC(=O)C2CCCN2C(=O)C(Cc2ccccc2)NC(=O)C(CC(C)C)NC(=O)C(CCCN)NC(=O)C(C(C)C)NC(=O)C2CCCN2C(=O)C(Cc2ccccc2)NC1=O
Actelion Java MolfileCreator 2.0

  0  0  0  0  0  0              0 V3000
M  V30 BEGIN CTAB
M  V30 COUNTS 174 178 0 0 0
M  V30 BEGIN ATOM
M  V30 1 O -3.5516 -4.2632 -3.7888 0
M  V30 2 C -2.9998 -3.2422 -3.3472 0
M  V30 3 N -3.7072 -2.0657 -3.2929 0
M  V30 4 C -1.5651 -3.404 -2.7932 0
M  V30 5 C -3.4295 -0.7972 -2.6022 0
M  V30 6 C -4.9635 -1.9648 -4.0114 0
M  V30 7 N -1.614 -3.7053 -1.363 0
M  V30 8 C -0.4783 -2.4271 -3.2609 0
M  V30 9 C -3.8083 -0.8123 -1.0986 0
M  V30 10 C -4.3422 0.2268 -3.3082 0
M  V30 11 C -4.9767 -0.5232 -4.4725 0
M  V30 12 C -1.3196 -2.828 -0.3496 0
M  V30 13 C -0.2419 -2.4611 -4.753 0
M  V30 14 O -4.54 -1.6764 -0.6094 0
M  V30 15 N -3.3893 0.2063 -0.2828 0
M  V30 16 O -0.9832 -1.6637 -0.5466 0
M  V30 17 C -1.4696 -3.4406 1.0614 0
M  V30 18 C 0.6309 -3.4086 -5.3051 0
M  V30 19 C -0.896 -1.5611 -5.6042 0
M  V30 20 C -2.4405 1.2858 -0.5828 0
M  V30 21 N -0.746 -2.6105 2.0169 0
M  V30 22 C -2.9569 -3.5212 1.4457 0
M  V30 23 C 0.8452 -3.4535 -6.6829 0
M  V30 24 C -0.6808 -1.6087 -6.982 0
M  V30 25 C -1.3347 1.4345 0.4936 0
M  V30 26 C -3.1871 2.6132 -0.8661 0
M  V30 27 C 0.4839 -2.7289 2.5779 0
M  V30 28 C -3.2382 -4.3985 2.6821 0
M  V30 29 C 0.189 -2.5544 -7.5208 0
M  V30 30 O -0.228 1.8904 0.2029 0
M  V30 31 N -1.6981 1.2246 1.7987 0
M  V30 32 C -3.8632 3.2257 0.3613 0
M  V30 33 C -2.2721 3.6393 -1.5386 0
M  V30 34 O 0.8215 -1.8678 3.3959 0
M  V30 35 C 1.3888 -3.954 2.3436 0
M  V30 36 C -4.6405 -4.1042 3.2223 0
M  V30 37 C -3.1294 -5.8895 2.3543 0
M  V30 38 C -0.7599 1.2624 2.9217 0
M  V30 39 N 1.5461 -4.2615 0.9209 0
M  V30 40 C 0.9051 -5.1936 3.1077 0
M  V30 41 C -0.2822 2.6893 3.3178 0
M  V30 42 C -1.3256 0.5188 4.1487 0
M  V30 43 C 2.3475 -3.6398 0.0071 0
M  V30 44 C 0.8326 -4.9799 4.6227 0
M  V30 45 O -0.4479 3.1629 4.441 0
M  V30 46 N 0.4267 3.3599 2.3424 0
M  V30 47 C -2.7037 0.9832 4.6528 0
M  V30 48 O 2.3059 -4.0444 -1.1599 0
M  V30 49 C 3.2876 -2.4916 0.4338 0
M  V30 50 C 0.4523 -6.2746 5.3408 0
M  V30 51 C 1.0963 4.6303 2.6094 0
M  V30 52 C -3.8684 0.1259 4.1469 0
M  V30 53 N 3.1735 -1.4948 -0.6294 0
M  V30 54 C 4.7524 -2.9851 0.5415 0
M  V30 55 N 0.3167 -6.0371 6.7703 0
M  V30 56 C 2.3196 4.9434 1.7114 0
M  V30 57 C 0.1093 5.8151 2.6651 0
M  V30 58 N -4.2113 0.3985 2.7423 0
M  V30 59 C 2.9076 -0.1642 -0.3861 0
M  V30 60 C 5.7137 -1.8281 0.8456 0
M  V30 61 C 4.9349 -4.0677 1.609 0
M  V30 62 O 2.8751 6.0403 1.7329 0
M  V30 63 N 2.7815 3.904 0.9406 0
M  V30 64 C -0.8256 5.9847 1.4491 0
M  V30 65 O 2.6363 0.2728 0.7307 0
M  V30 66 C 2.9724 0.7124 -1.6558 0
M  V30 67 C 3.997 3.9727 0.1069 0
M  V30 68 C -1.861 7.0742 1.7467 0
M  V30 69 C -0.0843 6.33 0.1585 0
M  V30 70 N 3.0526 2.1316 -1.3282 0
M  V30 71 C 1.6735 0.5667 -2.4494 0
M  V30 72 C 4.1294 2.6091 -0.609 0
M  V30 73 C 4.0735 5.2006 -0.8209 0
M  V30 74 C 1.985 2.8856 -1.9554 0
M  V30 75 C 1.4414 1.9533 -3.0269 0
M  V30 76 O 5.1594 1.9376 -0.4902 0
M  V30 77 C 5.1033 5.1468 -1.9281 0
M  V30 78 C 6.4349 4.7962 -1.6675 0
M  V30 79 C 4.7452 5.5017 -3.2369 0
M  V30 80 C 7.3769 4.7681 -2.6976 0
M  V30 81 C 5.6886 5.4756 -4.2655 0
M  V30 82 C 7.0036 5.105 -3.9963 0
M  V30 83 H -1.2519 -4.3754 -3.2083 0
M  V30 84 H -2.386 -0.5399 -2.7296 0
M  V30 85 H -5.0297 -2.6651 -4.849 0
M  V30 86 H -5.7769 -2.1704 -3.3065 0
M  V30 87 H -2.0239 -4.6021 -1.1309 0
M  V30 88 H -0.6653 -1.3966 -2.9632 0
M  V30 89 H 0.4685 -2.682 -2.7657 0
M  V30 90 H -3.7739 1.0926 -3.6639 0
M  V30 91 H -5.1305 0.6007 -2.6441 0
M  V30 92 H -5.9808 -0.1636 -4.7134 0
M  V30 93 H -4.3502 -0.4086 -5.3654 0
M  V30 94 H -3.7156 0.1094 0.6741 0
M  V30 95 H -1.033 -4.4387 1.0333 0
M  V30 96 H 1.1518 -4.1174 -4.6638 0
M  V30 97 H -1.5778 -0.8157 -5.2046 0
M  V30 98 H -1.8991 1.0018 -1.4896 0
M  V30 99 H -1.1493 -1.6973 2.1873 0
M  V30 100 H -3.5476 -3.9008 0.6027 0
M  V30 101 H -3.3206 -2.5035 1.6398 0
M  V30 102 H 1.5234 -4.1919 -7.1025 0
M  V30 103 H -1.1931 -0.9093 -7.6373 0
M  V30 104 H -3.99 2.4029 -1.5823 0
M  V30 105 H -2.5171 -4.1594 3.4729 0
M  V30 106 H 0.355 -2.5921 -8.5942 0
M  V30 107 H -2.6529 0.9477 2.0195 0
M  V30 108 H -4.5993 2.5376 0.7851 0
M  V30 109 H -3.1439 3.488 1.1413 0
M  V30 110 H -4.3981 4.1419 0.0873 0
M  V30 111 H -2.8318 4.5421 -1.8057 0
M  V30 112 H -1.4498 3.9385 -0.8851 0
M  V30 113 H -1.8431 3.2318 -2.4597 0
M  V30 114 H 2.3772 -3.6846 2.7272 0
M  V30 115 H -4.7357 -3.0521 3.5086 0
M  V30 116 H -5.4093 -4.3212 2.4728 0
M  V30 117 H -4.8507 -4.7101 4.11 0
M  V30 118 H -2.1386 -6.1531 1.9774 0
M  V30 119 H -3.8631 -6.1823 1.5953 0
M  V30 120 H -3.3125 -6.4946 3.2487 0
M  V30 121 H 0.1444 0.7324 2.5942 0
M  V30 122 H 1.0122 -5.0215 0.5206 0
M  V30 123 H -0.0772 -5.5096 2.7464 0
M  V30 124 H 1.5894 -6.0258 2.8961 0
M  V30 125 H -0.6084 0.6266 4.9734 0
M  V30 126 H -1.3736 -0.5532 3.9412 0
M  V30 127 H 1.802 -4.6216 4.9909 0
M  V30 128 H 0.0903 -4.2058 4.8523 0
M  V30 129 H 0.436 2.9528 1.4058 0
M  V30 130 H -2.6979 0.8948 5.7471 0
M  V30 131 H -2.8794 2.0425 4.4339 0
M  V30 132 H 2.9637 -2.0474 1.3771 0
M  V30 133 H 1.2163 -7.0404 5.1683 0
M  V30 134 H -0.4976 -6.6567 4.9521 0
M  V30 135 H 1.5336 4.5352 3.6138 0
M  V30 136 H -4.755 0.3227 4.7605 0
M  V30 137 H -3.6307 -0.937 4.2592 0
M  V30 138 H 3.2676 -1.8286 -1.582 0
M  V30 139 H 5.0514 -3.4203 -0.4217 0
M  V30 140 H 0.1441 -6.919 7.2512 0
M  V30 141 H 1.1896 -5.671 7.1495 0
M  V30 142 H -0.5207 5.684 3.555 0
M  V30 143 H 0.6612 6.7497 2.829 0
M  V30 144 H -4.9478 -0.2723 2.4883 0
M  V30 145 H -4.7011 1.3014 2.7364 0
M  V30 146 H 6.7394 -2.1944 0.962 0
M  V30 147 H 5.7251 -1.0935 0.0345 0
M  V30 148 H 5.4318 -1.3124 1.77 0
M  V30 149 H 4.3161 -4.9458 1.4029 0
M  V30 150 H 4.6832 -3.6902 2.6053 0
M  V30 151 H 5.9758 -4.4082 1.6376 0
M  V30 152 H 2.3987 2.9747 1.1054 0
M  V30 153 H -1.3746 5.051 1.2907 0
M  V30 154 H 3.8497 0.4418 -2.2548 0
M  V30 155 H 4.8304 4.0287 0.82 0
M  V30 156 H -2.4411 6.8268 2.642 0
M  V30 157 H -1.3809 8.0451 1.9099 0
M  V30 158 H -2.5659 7.1792 0.915 0
M  V30 159 H 0.5257 5.4915 -0.1859 0
M  V30 160 H 0.5647 7.2017 0.2915 0
M  V30 161 H -0.791 6.5586 -0.6467 0
M  V30 162 H 0.8357 0.2907 -1.7987 0
M  V30 163 H 1.7524 -0.1974 -3.2283 0
M  V30 164 H 4.3172 6.089 -0.2242 0
M  V30 165 H 3.0836 5.4143 -1.2393 0
M  V30 166 H 2.3565 3.8059 -2.4031 0
M  V30 167 H 1.2337 3.136 -1.2068 0
M  V30 168 H 2.0243 2.0668 -3.949 0
M  V30 169 H 0.392 2.1477 -3.2637 0
M  V30 170 H 6.7543 4.5338 -0.6609 0
M  V30 171 H 3.7267 5.8062 -3.4661 0
M  V30 172 H 8.4031 4.4825 -2.4825 0
M  V30 173 H 5.3981 5.7491 -5.2761 0
M  V30 174 H 7.739 5.0836 -4.7956 0
M  V30 END ATOM
M  V30 BEGIN BOND
M  V30 1 2 1 2
M  V30 2 1 2 3
M  V30 3 1 2 4
M  V30 4 1 3 5
M  V30 5 1 3 6
M  V30 6 1 4 7
M  V30 7 1 4 8
M  V30 8 1 5 9
M  V30 9 1 5 10
M  V30 10 1 6 11
M  V30 11 1 7 12
M  V30 12 1 8 13
M  V30 13 2 9 14
M  V30 14 1 9 15
M  V30 15 2 12 16
M  V30 16 1 12 17
M  V30 17 2 13 18
M  V30 18 1 13 19
M  V30 19 1 15 20
M  V30 20 1 17 21
M  V30 21 1 17 22
M  V30 22 1 18 23
M  V30 23 2 19 24
M  V30 24 1 20 25
M  V30 25 1 20 26
M  V30 26 1 21 27
M  V30 27 1 22 28
M  V30 28 2 23 29
M  V30 29 2 25 30
M  V30 30 1 25 31
M  V30 31 1 26 32
M  V30 32 1 26 33
M  V30 33 2 27 34
M  V30 34 1 27 35
M  V30 35 1 28 36
M  V30 36 1 28 37
M  V30 37 1 31 38
M  V30 38 1 35 39
M  V30 39 1 35 40
M  V30 40 1 38 41
M  V30 41 1 38 42
M  V30 42 1 39 43
M  V30 43 1 40 44
M  V30 44 2 41 45
M  V30 45 1 41 46
M  V30 46 1 42 47
M  V30 47 2 43 48
M  V30 48 1 43 49
M  V30 49 1 44 50
M  V30 50 1 46 51
M  V30 51 1 47 52
M  V30 52 1 49 53
M  V30 53 1 49 54
M  V30 54 1 50 55
M  V30 55 1 51 56
M  V30 56 1 51 57
M  V30 57 1 52 58
M  V30 58 1 53 59
M  V30 59 1 54 60
M  V30 60 1 54 61
M  V30 61 2 56 62
M  V30 62 1 56 63
M  V30 63 1 57 64
M  V30 64 2 59 65
M  V30 65 1 59 66
M  V30 66 1 63 67
M  V30 67 1 64 68
M  V30 68 1 64 69
M  V30 69 1 66 70
M  V30 70 1 66 71
M  V30 71 1 67 72
M  V30 72 1 67 73
M  V30 73 1 70 74
M  V30 74 1 71 75
M  V30 75 2 72 76
M  V30 76 1 73 77
M  V30 77 2 77 78
M  V30 78 1 77 79
M  V30 79 1 78 80
M  V30 80 2 79 81
M  V30 81 2 80 82
M  V30 82 1 10 11
M  V30 83 1 24 29
M  V30 84 1 70 72
M  V30 85 1 74 75
M  V30 86 1 81 82
M  V30 87 1 4 83
M  V30 88 1 5 84
M  V30 89 1 6 85
M  V30 90 1 6 86
M  V30 91 1 7 87
M  V30 92 1 8 88
M  V30 93 1 8 89
M  V30 94 1 10 90
M  V30 95 1 10 91
M  V30 96 1 11 92
M  V30 97 1 11 93
M  V30 98 1 15 94
M  V30 99 1 17 95
M  V30 100 1 18 96
M  V30 101 1 19 97
M  V30 102 1 20 98
M  V30 103 1 21 99
M  V30 104 1 22 100
M  V30 105 1 22 101
M  V30 106 1 23 102
M  V30 107 1 24 103
M  V30 108 1 26 104
M  V30 109 1 28 105
M  V30 110 1 29 106
M  V30 111 1 31 107
M  V30 112 1 32 108
M  V30 113 1 32 109
M  V30 114 1 32 110
M  V30 115 1 33 111
M  V30 116 1 33 112
M  V30 117 1 33 113
M  V30 118 1 35 114
M  V30 119 1 36 115
M  V30 120 1 36 116
M  V30 121 1 36 117
M  V30 122 1 37 118
M  V30 123 1 37 119
M  V30 124 1 37 120
M  V30 125 1 38 121
M  V30 126 1 39 122
M  V30 127 1 40 123
M  V30 128 1 40 124
M  V30 129 1 42 125
M  V30 130 1 42 126
M  V30 131 1 44 127
M  V30 132 1 44 128
M  V30 133 1 46 129
M  V30 134 1 47 130
M  V30 135 1 47 131
M  V30 136 1 49 132
M  V30 137 1 50 133
M  V30 138 1 50 134
M  V30 139 1 51 135
M  V30 140 1 52 136
M  V30 141 1 52 137
M  V30 142 1 53 138
M  V30 143 1 54 139
M  V30 144 1 55 140
M  V30 145 1 55 141
M  V30 146 1 57 142
M  V30 147 1 57 143
M  V30 148 1 58 144
M  V30 149 1 58 145
M  V30 150 1 60 146
M  V30 151 1 60 147
M  V30 152 1 60 148
M  V30 153 1 61 149
M  V30 154 1 61 150
M  V30 155 1 61 151
M  V30 156 1 63 152
M  V30 157 1 64 153
M  V30 158 1 66 154
M  V30 159 1 67 155
M  V30 160 1 68 156
M  V30 161 1 68 157
M  V30 162 1 68 158
M  V30 163 1 69 159
M  V30 164 1 69 160
M  V30 165 1 69 161
M  V30 166 1 71 162
M  V30 167 1 71 163
M  V30 168 1 73 164
M  V30 169 1 73 165
M  V30 170 1 74 166
M  V30 171 1 74 167
M  V30 172 1 75 168
M  V30 173 1 75 169
M  V30 174 1 78 170
M  V30 175 1 79 171
M  V30 176 1 80 172
M  V30 177 1 81 173
M  V30 178 1 82 174
M  V30 END BOND
M  V30 END CTAB
M  END
>  <level_0>
1253

>  <index>
1253

>  <NO.>
1254

>  <Name>
gramicidin-s

>  <SMILES>
CC(C)CC1NC(=O)C(CCCN)NC(=O)C(C(C)C)NC(=O)C2CCCN2C(=O)C(Cc2ccccc2)NC(=O)C(CC(C)C)NC(=O)C(CCCN)NC(=O)C(C(C)C)NC(=O)C2CCCN2C(=O)C(Cc2ccccc2)NC1=O

>  <logBB>


>  <Class>
-1

>  <MW>
1140.71

>  <nHBAcc>
12

>  <nHBDon>
10

>  <SLogP>
1.23

>  <TopoPSA>
325.46

>  <MMFF94 Energy>
218.82

$$$$
CC(C)CCC(=O)CC1c2ccccc2C(=O)N1c1ccc2ccc(Cl)nc2n1
Actelion Java MolfileCreator 2.0

  0  0  0  0  0  0              0 V3000
M  V30 BEGIN CTAB
M  V30 COUNTS 51 54 0 0 0
M  V30 BEGIN ATOM
M  V30 1 Cl -0.8864 -6.865 0.6446 0
M  V30 2 C 0.2177 -5.6183 0.2325 0
M  V30 3 N -0.3596 -4.4829 -0.2043 0
M  V30 4 C 1.5778 -5.8144 0.3606 0
M  V30 5 C 0.4298 -3.4688 -0.5458 0
M  V30 6 C 2.4049 -4.7589 0.0124 0
M  V30 7 N -0.1533 -2.3514 -0.9771 0
M  V30 8 C 1.8296 -3.5661 -0.4467 0
M  V30 9 C 0.5929 -1.2839 -1.3382 0
M  V30 10 C 2.6051 -2.4627 -0.807 0
M  V30 11 N -0.1098 -0.14 -1.7713 0
M  V30 12 C 1.977 -1.3066 -1.2545 0
M  V30 13 C 0.4286 0.942 -2.4618 0
M  V30 14 C -1.5723 -0.0741 -1.6911 0 CFG=2
M  V30 15 O 1.5842 1.2063 -2.738 0
M  V30 16 C -0.6963 1.7928 -2.8639 0
M  V30 17 C -1.8781 1.205 -2.4215 0
M  V30 18 C -2.1693 -0.1254 -0.2813 0
M  V30 19 C -0.6694 2.9813 -3.5706 0
M  V30 20 C -3.0955 1.8103 -2.6883 0
M  V30 21 C -1.7397 1.0125 0.6227 0
M  V30 22 C -1.892 3.5976 -3.8375 0
M  V30 23 C -3.0951 3.0159 -3.3993 0
M  V30 24 O -2.4698 1.9919 0.7841 0
M  V30 25 C -0.3787 0.9045 1.2902 0
M  V30 26 C -0.2802 1.7797 2.5401 0
M  V30 27 C 1.0091 1.5437 3.3476 0
M  V30 28 C 2.2686 1.8774 2.5466 0
M  V30 29 C 0.9766 2.3744 4.6326 0
M  V30 30 H 1.9822 -6.7535 0.7196 0
M  V30 31 H 3.4832 -4.8654 0.0982 0
M  V30 32 H 3.6899 -2.49 -0.743 0
M  V30 33 H 2.5881 -0.4513 -1.5202 0
M  V30 34 H -1.9727 -0.9027 -2.2907 0
M  V30 35 H -1.9395 -1.0645 0.2312 0
M  V30 36 H -3.2649 -0.0903 -0.3429 0
M  V30 37 H 0.2686 3.414 -3.902 0
M  V30 38 H -4.0315 1.3763 -2.3496 0
M  V30 39 H -1.917 4.5364 -4.3864 0
M  V30 40 H -4.0389 3.5146 -3.6119 0
M  V30 41 H -0.2128 -0.1421 1.5666 0
M  V30 42 H 0.377 1.2035 0.5599 0
M  V30 43 H -1.1464 1.5787 3.1845 0
M  V30 44 H -0.3512 2.8367 2.2522 0
M  V30 45 H 1.0556 0.4852 3.6335 0
M  V30 46 H 2.3841 1.2079 1.6888 0
M  V30 47 H 2.2416 2.9075 2.1754 0
M  V30 48 H 3.1642 1.7652 3.1671 0
M  V30 49 H 0.1016 2.1187 5.2396 0
M  V30 50 H 0.9354 3.4466 4.4122 0
M  V30 51 H 1.8686 2.1872 5.24 0
M  V30 END ATOM
M  V30 BEGIN BOND
M  V30 1 1 1 2
M  V30 2 2 2 3
M  V30 3 1 2 4
M  V30 4 1 3 5
M  V30 5 2 4 6
M  V30 6 2 5 7
M  V30 7 1 5 8
M  V30 8 1 7 9
M  V30 9 2 8 10
M  V30 10 1 9 11
M  V30 11 2 9 12
M  V30 12 1 11 13
M  V30 13 1 11 14
M  V30 14 2 13 15
M  V30 15 1 13 16
M  V30 16 1 14 17
M  V30 17 1 14 18
M  V30 18 1 16 19
M  V30 19 1 17 20
M  V30 20 1 18 21
M  V30 21 2 19 22
M  V30 22 2 20 23
M  V30 23 2 21 24
M  V30 24 1 21 25
M  V30 25 1 25 26
M  V30 26 1 26 27
M  V30 27 1 27 28
M  V30 28 1 27 29
M  V30 29 1 6 8
M  V30 30 1 10 12
M  V30 31 2 16 17
M  V30 32 1 22 23
M  V30 33 1 4 30
M  V30 34 1 6 31
M  V30 35 1 10 32
M  V30 36 1 12 33
M  V30 37 1 14 34
M  V30 38 1 18 35
M  V30 39 1 18 36
M  V30 40 1 19 37
M  V30 41 1 20 38
M  V30 42 1 22 39
M  V30 43 1 23 40
M  V30 44 1 25 41
M  V30 45 1 25 42
M  V30 46 1 26 43
M  V30 47 1 26 44
M  V30 48 1 27 45
M  V30 49 1 28 46
M  V30 50 1 28 47
M  V30 51 1 28 48
M  V30 52 1 29 49
M  V30 53 1 29 50
M  V30 54 1 29 51
M  V30 END BOND
M  V30 BEGIN COLLECTION
M  V30 MDLV30/STERAC1 ATOMS=(1 14)
M  V30 END COLLECTION
M  V30 END CTAB
M  END
>  <level_0>
1254

>  <index>
1254

>  <NO.>
1255

>  <Name>
pagoclone

>  <SMILES>
CC(C)CCC(=O)CC1c2ccccc2C(=O)N1c1ccc2ccc(Cl)nc2n1

>  <logBB>


>  <Class>
1

>  <MW>
407.14

>  <nHBAcc>
4

>  <nHBDon>
0

>  <SLogP>
5.38

>  <TopoPSA>
63.16

>  <MMFF94 Energy>
8.0539

$$$$
CC(C)N=c1cc2n(-c3ccc(Cl)cc3)c3ccccc3nc-2cc1Nc1ccc(Cl)cc1
Actelion Java MolfileCreator 2.0

  0  0  0  0  0  0              0 V3000
M  V30 BEGIN CTAB
M  V30 COUNTS 55 59 0 0 0
M  V30 BEGIN ATOM
M  V30 1 Cl -5.539 -3.2554 -3.4999 0
M  V30 2 C -3.9923 -2.5775 -3.172 0
M  V30 3 C -3.0391 -3.3297 -2.4867 0
M  V30 4 C -3.7025 -1.2805 -3.5938 0
M  V30 5 C -1.7839 -2.7793 -2.2187 0
M  V30 6 C -2.4475 -0.7291 -3.3263 0
M  V30 7 C -1.4797 -1.4738 -2.6346 0
M  V30 8 N -0.2009 -0.9069 -2.3512 0
M  V30 9 C 0.0256 -0.2849 -1.105 0
M  V30 10 C 0.867 -0.9401 -3.3137 0
M  V30 11 C 1.4026 0.2694 -0.8804 0
M  V30 12 C -0.8717 -0.1322 -0.1163 0
M  V30 13 C 2.1138 -0.3635 -2.9904 0
M  V30 14 C 0.7171 -1.5377 -4.5804 0
M  V30 15 N 2.3681 0.2383 -1.7479 0
M  V30 16 C 1.6981 0.8898 0.4265 0
M  V30 17 C -0.6036 0.5367 1.1796 0
M  V30 18 C 3.1596 -0.3865 -3.9205 0
M  V30 19 C 1.7694 -1.5544 -5.5002 0
M  V30 20 C 0.8144 0.9984 1.4228 0
M  V30 21 N -1.459 0.7627 2.1231 0
M  V30 22 C 2.9907 -0.9773 -5.171 0
M  V30 23 N 1.0032 1.5683 2.6695 0
M  V30 24 C -2.8677 0.3903 2.0199 0
M  V30 25 C 2.1546 1.8484 3.4152 0
M  V30 26 C -3.0494 -1.0537 2.4771 0
M  V30 27 C -3.6544 1.3339 2.9285 0
M  V30 28 C 3.3861 1.2153 3.212 0
M  V30 29 C 2.0866 2.8564 4.3907 0
M  V30 30 C 4.5135 1.5682 3.9635 0
M  V30 31 C 3.2087 3.2158 5.1443 0
M  V30 32 C 4.4198 2.5687 4.9258 0
M  V30 33 Cl 5.804 3.0037 5.849 0
M  V30 34 H -3.2649 -4.342 -2.1616 0
M  V30 35 H -4.4454 -0.6958 -4.1301 0
M  V30 36 H -1.0383 -3.3682 -1.689 0
M  V30 37 H -2.2204 0.2821 -3.6566 0
M  V30 38 H -1.8748 -0.5132 -0.2452 0
M  V30 39 H -0.2204 -2.0021 -4.8733 0
M  V30 40 H 2.7047 1.2786 0.5216 0
M  V30 41 H 4.1143 0.0618 -3.6575 0
M  V30 42 H 1.6321 -2.0201 -6.473 0
M  V30 43 H 3.8121 -0.988 -5.8824 0
M  V30 44 H 0.1127 1.7105 3.1538 0
M  V30 45 H -3.2551 0.5204 1.0037 0
M  V30 46 H -2.495 -1.7466 1.8362 0
M  V30 47 H -2.686 -1.1946 3.5013 0
M  V30 48 H -4.1056 -1.3412 2.4477 0
M  V30 49 H -3.5225 2.3741 2.6105 0
M  V30 50 H -3.3156 1.2625 3.9683 0
M  V30 51 H -4.7244 1.103 2.9002 0
M  V30 52 H 3.4844 0.4073 2.4932 0
M  V30 53 H 1.1498 3.3822 4.564 0
M  V30 54 H 5.4551 1.0532 3.7933 0
M  V30 55 H 3.1278 4.0004 5.8915 0
M  V30 END ATOM
M  V30 BEGIN BOND
M  V30 1 1 1 2
M  V30 2 2 2 3
M  V30 3 1 2 4
M  V30 4 1 3 5
M  V30 5 2 4 6
M  V30 6 2 5 7
M  V30 7 1 7 8
M  V30 8 1 8 9
M  V30 9 1 8 10
M  V30 10 1 9 11
M  V30 11 2 9 12
M  V30 12 2 10 13
M  V30 13 1 10 14
M  V30 14 2 11 15
M  V30 15 1 11 16
M  V30 16 1 12 17
M  V30 17 1 13 18
M  V30 18 2 14 19
M  V30 19 2 16 20
M  V30 20 2 17 21
M  V30 21 2 18 22
M  V30 22 1 20 23
M  V30 23 1 21 24
M  V30 24 1 23 25
M  V30 25 1 24 26
M  V30 26 1 24 27
M  V30 27 2 25 28
M  V30 28 1 25 29
M  V30 29 1 28 30
M  V30 30 2 29 31
M  V30 31 2 30 32
M  V30 32 1 32 33
M  V30 33 1 6 7
M  V30 34 1 13 15
M  V30 35 1 17 20
M  V30 36 1 19 22
M  V30 37 1 31 32
M  V30 38 1 3 34
M  V30 39 1 4 35
M  V30 40 1 5 36
M  V30 41 1 6 37
M  V30 42 1 12 38
M  V30 43 1 14 39
M  V30 44 1 16 40
M  V30 45 1 18 41
M  V30 46 1 19 42
M  V30 47 1 22 43
M  V30 48 1 23 44
M  V30 49 1 24 45
M  V30 50 1 26 46
M  V30 51 1 26 47
M  V30 52 1 26 48
M  V30 53 1 27 49
M  V30 54 1 27 50
M  V30 55 1 27 51
M  V30 56 1 28 52
M  V30 57 1 29 53
M  V30 58 1 30 54
M  V30 59 1 31 55
M  V30 END BOND
M  V30 END CTAB
M  END
>  <level_0>
1262

>  <index>
1262

>  <NO.>
1263

>  <Name>
clofazimine

>  <SMILES>
CC(C)N=c1cc2n(-c3ccc(Cl)cc3)c3ccccc3nc-2cc1Nc1ccc(Cl)cc1

>  <logBB>


>  <Class>
-1

>  <MW>
472.12

>  <nHBAcc>
3

>  <nHBDon>
1

>  <SLogP>
7.49

>  <TopoPSA>
42.21

>  <MMFF94 Energy>
105.41

$$$$
CC(C)[C@H](N)C(=O)OCC(CO)OCn1cnc2c(=O)[nH]c(N)nc21
Actelion Java MolfileCreator 2.0

  0  0  0  0  0  0              0 V3000
M  V30 BEGIN CTAB
M  V30 COUNTS 47 48 0 0 0
M  V30 BEGIN ATOM
M  V30 1 O 6.6116 1.5711 3.6951 0
M  V30 2 C 5.6362 0.9409 3.2987 0
M  V30 3 N 5.1298 -0.1439 4.0025 0
M  V30 4 C 4.8862 1.205 2.091 0
M  V30 5 C 4.0406 -0.8973 3.6101 0
M  V30 6 N 5.0543 2.1628 1.1238 0
M  V30 7 C 3.817 0.3852 1.8093 0
M  V30 8 N 3.3548 -0.6709 2.5207 0
M  V30 9 N 3.6938 -1.918 4.4233 0
M  V30 10 C 4.0863 1.9263 0.2592 0
M  V30 11 N 3.3064 0.8634 0.6361 0
M  V30 12 C 2.1778 0.3002 -0.0767 0
M  V30 13 O 1.6426 1.2766 -0.9723 0
M  V30 14 C 0.4856 0.8058 -1.6739 0
M  V30 15 C -0.7849 1.075 -0.848 0
M  V30 16 C 0.4329 1.5326 -3.0282 0
M  V30 17 O -1.9383 0.5482 -1.5231 0
M  V30 18 O -0.5576 0.9899 -3.8931 0
M  V30 19 C -3.0905 0.6057 -0.7868 0
M  V30 20 O -3.1673 1.0997 0.3305 0
M  V30 21 C -4.2693 -0.0662 -1.5195 0 CFG=1
M  V30 22 N -4.0895 -0.0378 -2.9921 0
M  V30 23 C -4.52 -1.5118 -1.0313 0
M  V30 24 C -3.3254 -2.451 -1.2308 0
M  V30 25 C -4.963 -1.5453 0.4353 0
M  V30 26 H 5.6216 -0.3628 4.8511 0
M  V30 27 H 4.176 -2.1442 5.279 0
M  V30 28 H 2.8962 -2.4824 4.1594 0
M  V30 29 H 3.9047 2.489 -0.6478 0
M  V30 30 H 2.546 -0.5673 -0.6342 0
M  V30 31 H 1.427 0.0015 0.6607 0
M  V30 32 H 0.5632 -0.2706 -1.8772 0
M  V30 33 H -0.6905 0.6043 0.1372 0
M  V30 34 H -0.9106 2.154 -0.6937 0
M  V30 35 H 1.4009 1.4473 -3.5339 0
M  V30 36 H 0.2423 2.6036 -2.896 0
M  V30 37 H -1.411 1.0602 -3.4301 0
M  V30 38 H -5.1545 0.547 -1.3109 0
M  V30 39 H -4.0209 0.9293 -3.3066 0
M  V30 40 H -3.2051 -0.485 -3.2343 0
M  V30 41 H -5.3549 -1.9184 -1.6192 0
M  V30 42 H -3.5798 -3.4666 -0.9078 0
M  V30 43 H -3.0311 -2.5105 -2.2828 0
M  V30 44 H -2.4558 -2.1284 -0.6492 0
M  V30 45 H -4.1541 -1.254 1.1124 0
M  V30 46 H -5.8113 -0.8735 0.6031 0
M  V30 47 H -5.2801 -2.5555 0.7165 0
M  V30 END ATOM
M  V30 BEGIN BOND
M  V30 1 2 1 2
M  V30 2 1 2 3
M  V30 3 1 2 4
M  V30 4 1 3 5
M  V30 5 1 4 6
M  V30 6 2 4 7
M  V30 7 2 5 8
M  V30 8 1 5 9
M  V30 9 2 6 10
M  V30 10 1 7 11
M  V30 11 1 11 12
M  V30 12 1 12 13
M  V30 13 1 13 14
M  V30 14 1 14 15
M  V30 15 1 14 16
M  V30 16 1 15 17
M  V30 17 1 16 18
M  V30 18 1 17 19
M  V30 19 2 19 20
M  V30 20 1 19 21
M  V30 21 1 21 22
M  V30 22 1 21 23
M  V30 23 1 23 24
M  V30 24 1 23 25
M  V30 25 1 7 8
M  V30 26 1 10 11
M  V30 27 1 3 26
M  V30 28 1 9 27
M  V30 29 1 9 28
M  V30 30 1 10 29
M  V30 31 1 12 30
M  V30 32 1 12 31
M  V30 33 1 14 32
M  V30 34 1 15 33
M  V30 35 1 15 34
M  V30 36 1 16 35
M  V30 37 1 16 36
M  V30 38 1 18 37
M  V30 39 1 21 38
M  V30 40 1 22 39
M  V30 41 1 22 40
M  V30 42 1 23 41
M  V30 43 1 24 42
M  V30 44 1 24 43
M  V30 45 1 24 44
M  V30 46 1 25 45
M  V30 47 1 25 46
M  V30 48 1 25 47
M  V30 END BOND
M  V30 BEGIN COLLECTION
M  V30 MDLV30/STEABS ATOMS=(1 21)
M  V30 END COLLECTION
M  V30 END CTAB
M  END
>  <level_0>
1274

>  <index>
1274

>  <NO.>
1275

>  <Name>
valganciclovir

>  <SMILES>
CC(C)[C@H](N)C(=O)OCC(CO)OCn1cnc2c(=O)[nH]c(N)nc21

>  <logBB>


>  <Class>
1

>  <MW>
354.17

>  <nHBAcc>
9

>  <nHBDon>
4

>  <SLogP>
-1.44

>  <TopoPSA>
171.37

>  <MMFF94 Energy>
19.683

$$$$
CC(C)[C@H](NC(=O)[C@H](Cc1ccccc1)NC(=O)CNC(=O)[C@@H](C)NC(=O)[C@@H](N)Cc1ccc(O)cc1)C(N)=O
Actelion Java MolfileCreator 2.0

  0  0  0  0  0  0              0 V3000
M  V30 BEGIN CTAB
M  V30 COUNTS 78 79 0 0 0
M  V30 BEGIN ATOM
M  V30 1 O 0.0785 3.1437 2.9077 0
M  V30 2 C -0.0661 3.0697 1.6893 0
M  V30 3 N 0.9976 3.0345 0.8164 0
M  V30 4 C -1.445 2.9796 1.0017 0 CFG=1
M  V30 5 C 2.3864 3.0853 1.2428 0 CFG=2
M  V30 6 N -1.5956 1.6247 0.4758 0
M  V30 7 C -2.561 3.3298 1.9972 0
M  V30 8 C 3.1449 4.0991 0.3643 0
M  V30 9 C 3.0759 1.7008 1.2199 0
M  V30 10 C -1.0728 1.2272 -0.7305 0
M  V30 11 C -3.9278 3.3885 1.353 0
M  V30 12 O 2.788 4.4393 -0.7604 0
M  V30 13 N 4.3012 4.5957 0.8977 0
M  V30 14 C 2.4875 0.766 2.2808 0
M  V30 15 C 3.0233 1.0221 -0.1528 0
M  V30 16 O -0.4431 1.9827 -1.467 0
M  V30 17 C -1.3384 -0.2377 -1.0747 0
M  V30 18 C -4.3288 4.5271 0.6409 0
M  V30 19 C -4.8026 2.2964 1.4391 0
M  V30 20 N -0.6708 -1.1173 -0.1303 0
M  V30 21 C -5.5834 4.5735 0.031 0
M  V30 22 C -6.0564 2.3454 0.8281 0
M  V30 23 C -1.2263 -1.4769 1.0769 0
M  V30 24 C -6.4467 3.4834 0.1249 0
M  V30 25 O -2.2649 -0.9525 1.4815 0
M  V30 26 C -0.3557 -2.4173 1.9449 0 CFG=2
M  V30 27 N 0.2209 -3.4964 1.1504 0
M  V30 28 C -1.1558 -2.9905 3.1068 0
M  V30 29 C 1.414 -3.4015 0.4738 0
M  V30 30 O 2.1016 -2.3857 0.4932 0
M  V30 31 C 1.7944 -4.6952 -0.2806 0 CFG=1
M  V30 32 N 0.5656 -5.4814 -0.5872 0
M  V30 33 C 2.6823 -4.416 -1.5109 0
M  V30 34 C 1.9961 -3.6986 -2.6549 0
M  V30 35 C 1.3409 -4.4217 -3.6637 0
M  V30 36 C 2.0016 -2.2978 -2.7216 0
M  V30 37 C 0.6866 -3.758 -4.7046 0
M  V30 38 C 1.3484 -1.6344 -3.7609 0
M  V30 39 C 0.6931 -2.3679 -4.741 0
M  V30 40 O 0.0636 -1.6799 -5.7346 0
M  V30 41 H 0.8078 2.9944 -0.1879 0
M  V30 42 H -1.4489 3.6855 0.1614 0
M  V30 43 H 2.4189 3.4768 2.268 0
M  V30 44 H -2.0429 0.915 1.0567 0
M  V30 45 H -2.3559 4.3013 2.4667 0
M  V30 46 H -2.5801 2.6041 2.8218 0
M  V30 47 H 4.1359 1.8441 1.4685 0
M  V30 48 H 4.8262 5.2579 0.3416 0
M  V30 49 H 4.6299 4.3633 1.8242 0
M  V30 50 H 1.4428 0.5192 2.0664 0
M  V30 51 H 3.0498 -0.1729 2.3222 0
M  V30 52 H 2.5341 1.2247 3.274 0
M  V30 53 H 3.4601 1.657 -0.9296 0
M  V30 54 H 3.5929 0.0865 -0.1377 0
M  V30 55 H 1.9976 0.7787 -0.4461 0
M  V30 56 H -2.4173 -0.4231 -1.0594 0
M  V30 57 H -0.9497 -0.4523 -2.0732 0
M  V30 58 H -3.6661 5.3854 0.5556 0
M  V30 59 H -4.5116 1.3977 1.9797 0
M  V30 60 H 0.2885 -1.391 -0.3216 0
M  V30 61 H -5.8862 5.4604 -0.5193 0
M  V30 62 H -6.7274 1.4936 0.9002 0
M  V30 63 H -7.4228 3.5204 -0.351 0
M  V30 64 H 0.4647 -1.8079 2.3418 0
M  V30 65 H -0.3089 -4.3493 0.9764 0
M  V30 66 H -0.5321 -3.6461 3.7241 0
M  V30 67 H -1.5484 -2.1933 3.747 0
M  V30 68 H -2.0071 -3.5803 2.7482 0
M  V30 69 H 2.3811 -5.286 0.4341 0
M  V30 70 H 0.0356 -4.9672 -1.2968 0
M  V30 71 H 0.8481 -6.3482 -1.0461 0
M  V30 72 H 3.564 -3.8352 -1.209 0
M  V30 73 H 3.0798 -5.368 -1.888 0
M  V30 74 H 1.3383 -5.5093 -3.6489 0
M  V30 75 H 2.5214 -1.708 -1.9685 0
M  V30 76 H 0.1843 -4.3372 -5.4729 0
M  V30 77 H 1.3554 -0.5479 -3.8061 0
M  V30 78 H -0.3032 -2.3134 -6.3722 0
M  V30 END ATOM
M  V30 BEGIN BOND
M  V30 1 2 1 2
M  V30 2 1 2 3
M  V30 3 1 2 4
M  V30 4 1 3 5
M  V30 5 1 4 6
M  V30 6 1 4 7
M  V30 7 1 5 8
M  V30 8 1 5 9
M  V30 9 1 6 10
M  V30 10 1 7 11
M  V30 11 2 8 12
M  V30 12 1 8 13
M  V30 13 1 9 14
M  V30 14 1 9 15
M  V30 15 2 10 16
M  V30 16 1 10 17
M  V30 17 2 11 18
M  V30 18 1 11 19
M  V30 19 1 17 20
M  V30 20 1 18 21
M  V30 21 2 19 22
M  V30 22 1 20 23
M  V30 23 2 21 24
M  V30 24 2 23 25
M  V30 25 1 23 26
M  V30 26 1 26 27
M  V30 27 1 26 28
M  V30 28 1 27 29
M  V30 29 2 29 30
M  V30 30 1 29 31
M  V30 31 1 31 32
M  V30 32 1 31 33
M  V30 33 1 33 34
M  V30 34 2 34 35
M  V30 35 1 34 36
M  V30 36 1 35 37
M  V30 37 2 36 38
M  V30 38 2 37 39
M  V30 39 1 39 40
M  V30 40 1 22 24
M  V30 41 1 38 39
M  V30 42 1 3 41
M  V30 43 1 4 42
M  V30 44 1 5 43
M  V30 45 1 6 44
M  V30 46 1 7 45
M  V30 47 1 7 46
M  V30 48 1 9 47
M  V30 49 1 13 48
M  V30 50 1 13 49
M  V30 51 1 14 50
M  V30 52 1 14 51
M  V30 53 1 14 52
M  V30 54 1 15 53
M  V30 55 1 15 54
M  V30 56 1 15 55
M  V30 57 1 17 56
M  V30 58 1 17 57
M  V30 59 1 18 58
M  V30 60 1 19 59
M  V30 61 1 20 60
M  V30 62 1 21 61
M  V30 63 1 22 62
M  V30 64 1 24 63
M  V30 65 1 26 64
M  V30 66 1 27 65
M  V30 67 1 28 66
M  V30 68 1 28 67
M  V30 69 1 28 68
M  V30 70 1 31 69
M  V30 71 1 32 70
M  V30 72 1 32 71
M  V30 73 1 33 72
M  V30 74 1 33 73
M  V30 75 1 35 74
M  V30 76 1 36 75
M  V30 77 1 37 76
M  V30 78 1 38 77
M  V30 79 1 40 78
M  V30 END BOND
M  V30 BEGIN COLLECTION
M  V30 MDLV30/STEABS ATOMS=(4 4 5 26 31)
M  V30 END COLLECTION
M  V30 END CTAB
M  END
>  <level_0>
1275

>  <index>
1275

>  <NO.>
1276

>  <Name>
enkephalin

>  <SMILES>
CC(C)[C@H](NC(=O)[C@H](Cc1ccccc1)NC(=O)CNC(=O)[C@@H](C)NC(=O)[C@@H](N)Cc1ccc(O)cc1)C(N)=O

>  <logBB>


>  <Class>
-1

>  <MW>
554.29

>  <nHBAcc>
7

>  <nHBDon>
7

>  <SLogP>
-0.76

>  <TopoPSA>
205.74

>  <MMFF94 Energy>
89.637

$$$$
CC(CN(C)C)CN1c2ccccc2Sc2ccc(C(F)(F)F)cc21
Actelion Java MolfileCreator 2.0

  0  0  0  0  0  0              0 V3000
M  V30 BEGIN CTAB
M  V30 COUNTS 46 48 0 0 0
M  V30 BEGIN ATOM
M  V30 1 S -1.0549 1.7045 -2.4357 0
M  V30 2 C -0.087 0.2112 -2.5103 0
M  V30 3 C -0.1687 2.6515 -1.2143 0
M  V30 4 C 0.8614 -0.1359 -1.529 0
M  V30 5 C -0.3337 -0.6402 -3.6004 0
M  V30 6 C 0.797 2.0837 -0.3591 0
M  V30 7 C -0.4882 4.0183 -1.1288 0
M  V30 8 N 1.1076 0.6997 -0.408 0
M  V30 9 C 1.5739 -1.3388 -1.7183 0
M  V30 10 C 0.3693 -1.8333 -3.7499 0
M  V30 11 C 1.4719 2.9602 0.5149 0
M  V30 12 C 0.168 4.8493 -0.2259 0
M  V30 13 C 1.4296 0.0311 0.879 0
M  V30 14 C 1.3325 -2.1965 -2.8078 0
M  V30 15 C 1.1585 4.3214 0.5886 0
M  V30 16 C 0.2834 -0.8762 1.3953 0 CFG=2
M  V30 17 C 2.1349 -3.4632 -2.9711 0
M  V30 18 C -0.9705 -0.0383 1.7398 0
M  V30 19 C 0.7835 -1.6608 2.616 0
M  V30 20 F 2.4677 -4.0375 -1.7811 0
M  V30 21 F 1.4792 -4.4265 -3.6764 0
M  V30 22 F 3.3089 -3.2521 -3.6259 0
M  V30 23 N -2.0885 -0.8183 2.3092 0
M  V30 24 C -2.6872 -1.709 1.3109 0
M  V30 25 C -3.1146 0.0923 2.827 0
M  V30 26 H -1.0769 -0.3706 -4.3487 0
M  V30 27 H -1.248 4.446 -1.7796 0
M  V30 28 H 2.356 -1.6267 -1.0195 0
M  V30 29 H 0.1653 -2.471 -4.6085 0
M  V30 30 H 2.2907 2.6084 1.1359 0
M  V30 31 H -0.0807 5.9058 -0.1748 0
M  V30 32 H 2.3541 -0.5479 0.7694 0
M  V30 33 H 1.6622 0.7417 1.6788 0
M  V30 34 H 1.7 4.9662 1.2762 0
M  V30 35 H 0.0276 -1.6066 0.6209 0
M  V30 36 H -1.3205 0.5026 0.853 0
M  V30 37 H -0.6661 0.7225 2.4714 0
M  V30 38 H 1.0226 -0.99 3.4482 0
M  V30 39 H 0.0348 -2.38 2.9629 0
M  V30 40 H 1.6872 -2.2278 2.3678 0
M  V30 41 H -1.9768 -2.4744 0.9845 0
M  V30 42 H -3.0419 -1.1639 0.4286 0
M  V30 43 H -3.5366 -2.2515 1.7419 0
M  V30 44 H -3.5322 0.7347 2.0431 0
M  V30 45 H -2.7003 0.732 3.6143 0
M  V30 46 H -3.9347 -0.4717 3.2853 0
M  V30 END ATOM
M  V30 BEGIN BOND
M  V30 1 1 1 2
M  V30 2 1 1 3
M  V30 3 2 2 4
M  V30 4 1 2 5
M  V30 5 2 3 6
M  V30 6 1 3 7
M  V30 7 1 4 8
M  V30 8 1 4 9
M  V30 9 2 5 10
M  V30 10 1 6 11
M  V30 11 2 7 12
M  V30 12 1 8 13
M  V30 13 2 9 14
M  V30 14 2 11 15
M  V30 15 1 13 16
M  V30 16 1 14 17
M  V30 17 1 16 18
M  V30 18 1 16 19
M  V30 19 1 17 20
M  V30 20 1 17 21
M  V30 21 1 17 22
M  V30 22 1 18 23
M  V30 23 1 23 24
M  V30 24 1 23 25
M  V30 25 1 6 8
M  V30 26 1 10 14
M  V30 27 1 12 15
M  V30 28 1 5 26
M  V30 29 1 7 27
M  V30 30 1 9 28
M  V30 31 1 10 29
M  V30 32 1 11 30
M  V30 33 1 12 31
M  V30 34 1 13 32
M  V30 35 1 13 33
M  V30 36 1 15 34
M  V30 37 1 16 35
M  V30 38 1 18 36
M  V30 39 1 18 37
M  V30 40 1 19 38
M  V30 41 1 19 39
M  V30 42 1 19 40
M  V30 43 1 24 41
M  V30 44 1 24 42
M  V30 45 1 24 43
M  V30 46 1 25 44
M  V30 47 1 25 45
M  V30 48 1 25 46
M  V30 END BOND
M  V30 BEGIN COLLECTION
M  V30 MDLV30/STERAC1 ATOMS=(1 16)
M  V30 END COLLECTION
M  V30 END CTAB
M  END
>  <level_0>
1290

>  <index>
1290

>  <NO.>
1291

>  <Name>
trifluomeprazine

>  <SMILES>
CC(CN(C)C)CN1c2ccccc2Sc2ccc(C(F)(F)F)cc21

>  <logBB>


>  <Class>
1

>  <MW>
366.14

>  <nHBAcc>
3

>  <nHBDon>
0

>  <SLogP>
5.51

>  <TopoPSA>
6.48

>  <MMFF94 Energy>
98.597

$$$$
CC(Cc1ccccc1)NCCC1c2ccccc2Sc2ccccc21
Actelion Java MolfileCreator 2.0

  0  0  0  0  0  0              0 V3000
M  V30 BEGIN CTAB
M  V30 COUNTS 51 54 0 0 0
M  V30 BEGIN ATOM
M  V30 1 S 0.9673 3.308 1.9354 0
M  V30 2 C 0.2386 2.5323 3.3656 0
M  V30 3 C -0.1343 2.7568 0.6458 0
M  V30 4 C -0.5507 1.3758 3.2681 0
M  V30 5 C 0.4573 3.1195 4.6189 0
M  V30 6 C -0.8975 1.5846 0.7645 0
M  V30 7 C -0.2583 3.5581 -0.4979 0
M  V30 8 C -1.1237 0.8377 4.4357 0
M  V30 9 C -0.7226 0.6381 1.9439 0
M  V30 10 C -0.1173 2.5769 5.7688 0
M  V30 11 C -1.8125 1.2678 -0.2555 0
M  V30 12 C -1.1588 3.2211 -1.5082 0
M  V30 13 C -0.9119 1.4389 5.6762 0
M  V30 14 C 0.47 -0.3391 1.7577 0
M  V30 15 C -1.9432 2.0802 -1.3819 0
M  V30 16 C 0.1259 -1.6529 1.0392 0
M  V30 17 N -0.2314 -1.4419 -0.3584 0
M  V30 18 C -0.3 -2.681 -1.1525 0 CFG=2
M  V30 19 C -0.4323 -2.3411 -2.6596 0
M  V30 20 C -1.4958 -3.5391 -0.7276 0
M  V30 21 C 0.7939 -1.6739 -3.243 0
M  V30 22 C 0.8231 -0.2861 -3.4377 0
M  V30 23 C 1.9259 -2.4304 -3.5742 0
M  V30 24 C 1.9626 0.3329 -3.952 0
M  V30 25 C 3.0639 -1.8097 -4.0916 0
M  V30 26 C 3.0823 -0.4288 -4.2796 0
M  V30 27 H 1.069 4.0147 4.7066 0
M  V30 28 H 0.3333 4.4651 -0.5995 0
M  V30 29 H -1.731 -0.0634 4.3838 0
M  V30 30 H -1.65 0.0548 2.0337 0
M  V30 31 H 0.0537 3.046 6.7341 0
M  V30 32 H -2.4143 0.3632 -0.1868 0
M  V30 33 H -1.2538 3.8549 -2.3856 0
M  V30 34 H -1.3605 1.014 6.5705 0
M  V30 35 H 0.8603 -0.633 2.7423 0
M  V30 36 H 1.3065 0.1531 1.2443 0
M  V30 37 H -2.6499 1.8132 -2.1632 0
M  V30 38 H -0.692 -2.1448 1.5763 0
M  V30 39 H 1.0051 -2.3055 1.1035 0
M  V30 40 H 0.464 -0.822 -0.7823 0
M  V30 41 H 0.6203 -3.2611 -1.0073 0
M  V30 42 H -0.6188 -3.2598 -3.2318 0
M  V30 43 H -1.314 -1.7078 -2.8287 0
M  V30 44 H -1.393 -3.8947 0.3023 0
M  V30 45 H -2.4354 -2.9803 -0.8038 0
M  V30 46 H -1.5809 -4.4258 -1.3653 0
M  V30 47 H -0.0404 0.3229 -3.1786 0
M  V30 48 H 1.9281 -3.5082 -3.4303 0
M  V30 49 H 1.9764 1.4104 -4.0931 0
M  V30 50 H 3.9375 -2.4035 -4.3465 0
M  V30 51 H 3.9696 0.054 -4.6799 0
M  V30 END ATOM
M  V30 BEGIN BOND
M  V30 1 1 1 2
M  V30 2 1 1 3
M  V30 3 2 2 4
M  V30 4 1 2 5
M  V30 5 2 3 6
M  V30 6 1 3 7
M  V30 7 1 4 8
M  V30 8 1 4 9
M  V30 9 2 5 10
M  V30 10 1 6 11
M  V30 11 2 7 12
M  V30 12 2 8 13
M  V30 13 1 9 14
M  V30 14 2 11 15
M  V30 15 1 14 16
M  V30 16 1 16 17
M  V30 17 1 17 18
M  V30 18 1 18 19
M  V30 19 1 18 20
M  V30 20 1 19 21
M  V30 21 2 21 22
M  V30 22 1 21 23
M  V30 23 1 22 24
M  V30 24 2 23 25
M  V30 25 2 24 26
M  V30 26 1 6 9
M  V30 27 1 10 13
M  V30 28 1 12 15
M  V30 29 1 25 26
M  V30 30 1 5 27
M  V30 31 1 7 28
M  V30 32 1 8 29
M  V30 33 1 9 30
M  V30 34 1 10 31
M  V30 35 1 11 32
M  V30 36 1 12 33
M  V30 37 1 13 34
M  V30 38 1 14 35
M  V30 39 1 14 36
M  V30 40 1 15 37
M  V30 41 1 16 38
M  V30 42 1 16 39
M  V30 43 1 17 40
M  V30 44 1 18 41
M  V30 45 1 19 42
M  V30 46 1 19 43
M  V30 47 1 20 44
M  V30 48 1 20 45
M  V30 49 1 20 46
M  V30 50 1 22 47
M  V30 51 1 23 48
M  V30 52 1 24 49
M  V30 53 1 25 50
M  V30 54 1 26 51
M  V30 END BOND
M  V30 BEGIN COLLECTION
M  V30 MDLV30/STERAC1 ATOMS=(1 18)
M  V30 END COLLECTION
M  V30 END CTAB
M  END
>  <level_0>
1306

>  <index>
1306

>  <NO.>
1307

>  <Name>
tixadil

>  <SMILES>
CC(Cc1ccccc1)NCCC1c2ccccc2Sc2ccccc21

>  <logBB>


>  <Class>
1

>  <MW>
359.17

>  <nHBAcc>
2

>  <nHBDon>
1

>  <SLogP>
5.89

>  <TopoPSA>
12.03

>  <MMFF94 Energy>
76.108

$$$$
CC(O)Cn1cnc2c1c(=O)n(C)c(=O)n2C
Actelion Java MolfileCreator 2.0

  0  0  0  0  0  0              0 V3000
M  V30 BEGIN CTAB
M  V30 COUNTS 31 32 0 0 0
M  V30 BEGIN ATOM
M  V30 1 O -2.2044 -1.5742 -3.308 0
M  V30 2 C -1.5646 -1.2476 -2.3034 0
M  V30 3 N -2.0937 -0.3323 -1.3723 0
M  V30 4 N -0.3008 -1.7706 -2.0345 0
M  V30 5 C -1.4834 0.0605 -0.1753 0
M  V30 6 C -3.4095 0.199 -1.6687 0
M  V30 7 C 0.3649 -1.3708 -0.901 0
M  V30 8 C 0.3145 -2.7206 -2.9426 0
M  V30 9 O -2.0246 0.7781 0.6609 0
M  V30 10 C -0.1821 -0.4945 -0.0103 0
M  V30 11 N 1.6044 -1.7864 -0.5191 0
M  V30 12 N 0.7771 -0.3304 0.9503 0
M  V30 13 C 1.8279 -1.1465 0.6093 0
M  V30 14 C 0.7417 0.5271 2.1213 0
M  V30 15 C 1.5534 1.8147 1.928 0 CFG=1
M  V30 16 O 0.9309 2.639 0.9443 0
M  V30 17 C 1.6422 2.5982 3.2314 0
M  V30 18 H -4.1394 -0.6126 -1.5837 0
M  V30 19 H -3.4302 0.5734 -2.6975 0
M  V30 20 H -3.6965 1.0091 -0.9936 0
M  V30 21 H 0.5213 -3.6497 -2.402 0
M  V30 22 H 1.2519 -2.299 -3.319 0
M  V30 23 H -0.3315 -2.9492 -3.7941 0
M  V30 24 H 2.7247 -1.2285 1.2101 0
M  V30 25 H -0.3028 0.7489 2.3545 0
M  V30 26 H 1.1463 -0.0637 2.9519 0
M  V30 27 H 2.5634 1.5802 1.5732 0
M  V30 28 H 1.4619 3.4483 0.8459 0
M  V30 29 H 2.215 3.5206 3.0864 0
M  V30 30 H 0.6465 2.8976 3.5768 0
M  V30 31 H 2.1254 2.0099 4.0173 0
M  V30 END ATOM
M  V30 BEGIN BOND
M  V30 1 2 1 2
M  V30 2 1 2 3
M  V30 3 1 2 4
M  V30 4 1 3 5
M  V30 5 1 3 6
M  V30 6 1 4 7
M  V30 7 1 4 8
M  V30 8 2 5 9
M  V30 9 1 5 10
M  V30 10 1 7 11
M  V30 11 1 10 12
M  V30 12 2 11 13
M  V30 13 1 12 14
M  V30 14 1 14 15
M  V30 15 1 15 16
M  V30 16 1 15 17
M  V30 17 2 7 10
M  V30 18 1 12 13
M  V30 19 1 6 18
M  V30 20 1 6 19
M  V30 21 1 6 20
M  V30 22 1 8 21
M  V30 23 1 8 22
M  V30 24 1 8 23
M  V30 25 1 13 24
M  V30 26 1 14 25
M  V30 27 1 14 26
M  V30 28 1 15 27
M  V30 29 1 16 28
M  V30 30 1 17 29
M  V30 31 1 17 30
M  V30 32 1 17 31
M  V30 END BOND
M  V30 BEGIN COLLECTION
M  V30 MDLV30/STERAC1 ATOMS=(1 15)
M  V30 END COLLECTION
M  V30 END CTAB
M  END
>  <level_0>
1316

>  <index>
1316

>  <NO.>
1317

>  <Name>
proxyphylline

>  <SMILES>
CC(O)Cn1cnc2c1c(=O)n(C)c(=O)n2C

>  <logBB>


>  <Class>
1

>  <MW>
238.11

>  <nHBAcc>
4

>  <nHBDon>
1

>  <SLogP>
-1.19

>  <TopoPSA>
82.05

>  <MMFF94 Energy>
-110.3

$$$$
CC1(C)O[C@@H]2C[C@H]3C4C[C@H](F)C5=CC(=O)C=CC5(C)[C@@]4(Cl)[C@@H](Cl)CC3(C)[C@]2(C(=O)CCl)O1
Actelion Java MolfileCreator 2.0

  0  0  0  0  0  0              0 V3000
M  V30 BEGIN CTAB
M  V30 COUNTS 60 64 0 0 0
M  V30 BEGIN ATOM
M  V30 1 Cl -0.916 -2.2496 -0.4996 0
M  V30 2 C 0.2479 -1.1026 -1.4345 0 CFG=2
M  V30 3 C 0.205 -1.5883 -2.9647 0
M  V30 4 C 1.609 -1.258 -0.6531 0 CFG=1
M  V30 5 C -0.3364 0.3622 -1.2983 0
M  V30 6 C -1.2366 -1.4072 -3.4848 0
M  V30 7 C 0.6641 -3.0395 -3.1035 0
M  V30 8 C 1.1001 -0.7825 -3.9418 0
M  V30 9 Cl 3.0603 -0.661 -1.5165 0
M  V30 10 C 1.5978 -0.6288 0.7722 0
M  V30 11 C -0.352 0.8075 0.1762 0 CFG=1
M  V30 12 C -1.7387 0.4963 -1.9265 0
M  V30 13 C -1.972 -2.4119 -3.996 0
M  V30 14 C -1.8018 -0.014 -3.3614 0 CFG=2
M  V30 15 C -0.0767 -4.0314 -3.6164 0
M  V30 16 C 1.0445 0.8142 0.8412 0
M  V30 17 C -0.9214 2.1767 0.5466 0
M  V30 18 C -1.4486 -3.7885 -4.1044 0
M  V30 19 F -3.1054 0.0313 -3.7583 0
M  V30 20 C 0.6572 1.3306 2.2669 0 CFG=1
M  V30 21 C 2.0198 1.8286 0.1838 0
M  V30 22 C -0.4327 2.3876 1.9981 0 CFG=2
M  V30 23 O -2.1198 -4.6922 -4.5848 0
M  V30 24 O -0.0108 0.314 3.0181 0
M  V30 25 C 1.8495 1.8756 3.0732 0
M  V30 26 O -1.5014 2.1125 2.9032 0
M  V30 27 C -1.168 0.9189 3.6044 0
M  V30 28 O 2.0996 3.0833 3.1121 0
M  V30 29 C 2.7572 0.8514 3.7229 0
M  V30 30 C -2.3315 -0.0589 3.5057 0
M  V30 31 C -0.8823 1.2661 5.0629 0
M  V30 32 Cl 3.1822 1.3667 5.3645 0
M  V30 33 H 1.8201 -2.3261 -0.5252 0
M  V30 34 H 0.3122 1.0455 -1.8551 0
M  V30 35 H 1.6745 -3.2826 -2.7797 0
M  V30 36 H 1.1071 0.2895 -3.7261 0
M  V30 37 H 0.7553 -0.8928 -4.9795 0
M  V30 38 H 2.1381 -1.1294 -3.953 0
M  V30 39 H 2.6051 -0.6662 1.2059 0
M  V30 40 H 0.9916 -1.2802 1.4141 0
M  V30 41 H -0.9897 0.0907 0.7088 0
M  V30 42 H -2.493 -0.0219 -1.321 0
M  V30 43 H -2.0492 1.5487 -1.9271 0
M  V30 44 H -2.9886 -2.2717 -4.3492 0
M  V30 45 H -1.2551 0.6656 -4.0234 0
M  V30 46 H 0.289 -5.0475 -3.7048 0
M  V30 47 H -2.0134 2.1984 0.4715 0
M  V30 48 H -0.5158 2.9521 -0.1124 0
M  V30 49 H 2.0542 1.7535 -0.9034 0
M  V30 50 H 3.0394 1.6849 0.5593 0
M  V30 51 H 1.7495 2.8686 0.3968 0
M  V30 52 H -0.1228 3.4276 2.1353 0
M  V30 53 H 3.6689 0.751 3.1284 0
M  V30 54 H 2.2737 -0.1235 3.8023 0
M  V30 55 H -3.2463 0.3655 3.9328 0
M  V30 56 H -2.102 -1.003 4.0108 0
M  V30 57 H -2.5483 -0.2972 2.4587 0
M  V30 58 H -1.768 1.6886 5.5496 0
M  V30 59 H -0.0923 2.0203 5.1405 0
M  V30 60 H -0.5494 0.3859 5.6228 0
M  V30 END ATOM
M  V30 BEGIN BOND
M  V30 1 1 1 2
M  V30 2 1 2 3
M  V30 3 1 2 4
M  V30 4 1 2 5
M  V30 5 1 3 6
M  V30 6 1 3 7
M  V30 7 1 3 8
M  V30 8 1 4 9
M  V30 9 1 4 10
M  V30 10 1 5 11
M  V30 11 1 5 12
M  V30 12 2 6 13
M  V30 13 1 6 14
M  V30 14 2 7 15
M  V30 15 1 10 16
M  V30 16 1 11 17
M  V30 17 1 13 18
M  V30 18 1 14 19
M  V30 19 1 16 20
M  V30 20 1 16 21
M  V30 21 1 17 22
M  V30 22 2 18 23
M  V30 23 1 20 24
M  V30 24 1 20 25
M  V30 25 1 22 26
M  V30 26 1 24 27
M  V30 27 2 25 28
M  V30 28 1 25 29
M  V30 29 1 27 30
M  V30 30 1 27 31
M  V30 31 1 29 32
M  V30 32 1 11 16
M  V30 33 1 12 14
M  V30 34 1 15 18
M  V30 35 1 20 22
M  V30 36 1 26 27
M  V30 37 1 4 33
M  V30 38 1 5 34
M  V30 39 1 7 35
M  V30 40 1 8 36
M  V30 41 1 8 37
M  V30 42 1 8 38
M  V30 43 1 10 39
M  V30 44 1 10 40
M  V30 45 1 11 41
M  V30 46 1 12 42
M  V30 47 1 12 43
M  V30 48 1 13 44
M  V30 49 1 14 45
M  V30 50 1 15 46
M  V30 51 1 17 47
M  V30 52 1 17 48
M  V30 53 1 21 49
M  V30 54 1 21 50
M  V30 55 1 21 51
M  V30 56 1 22 52
M  V30 57 1 29 53
M  V30 58 1 29 54
M  V30 59 1 30 55
M  V30 60 1 30 56
M  V30 61 1 30 57
M  V30 62 1 31 58
M  V30 63 1 31 59
M  V30 64 1 31 60
M  V30 END BOND
M  V30 BEGIN COLLECTION
M  V30 MDLV30/STEABS ATOMS=(6 2 4 11 14 20 22)
M  V30 END COLLECTION
M  V30 END CTAB
M  END
>  <level_0>
1334

>  <index>
1334

>  <NO.>
1335

>  <Name>
triclonide

>  <SMILES>
CC1(C)O[C@@H]2C[C@H]3C4C[C@H](F)C5=CC(=O)C=CC5(C)[C@@]4(Cl)[C@@H](Cl)CC3(C)[C@]2(C(=O)CCl)O1

>  <logBB>


>  <Class>
1

>  <MW>
504.1

>  <nHBAcc>
4

>  <nHBDon>
0

>  <SLogP>
5.13

>  <TopoPSA>
52.6

>  <MMFF94 Energy>
153.99

$$$$
CC1(C)O[C@@H]2C[C@H]3[C@@H]4CCC5=CC(=O)C=C[C@]5(C)[C@@]4(F)[C@@H](O)C[C@]3(C)[C@]2(C(=O)COC(=O)c2cc3ccccc3o2)O1
Actelion Java MolfileCreator 2.0

  0  0  0  0  0  0              0 V3000
M  V30 BEGIN CTAB
M  V30 COUNTS 77 83 0 0 0
M  V30 BEGIN ATOM
M  V30 1 F 1.6282 1.4653 -3.1769 0
M  V30 2 C 2.4978 1.2102 -2.1254 0 CFG=2
M  V30 3 C 3.9597 1.3779 -2.7115 0 CFG=2
M  V30 4 C 2.1213 -0.2275 -1.6473 0 CFG=1
M  V30 5 C 2.1748 2.2927 -1.041 0 CFG=2
M  V30 6 C 4.1099 2.8365 -3.1835 0
M  V30 7 C 4.1974 0.4066 -3.8678 0
M  V30 8 C 5.0822 1.0982 -1.6854 0
M  V30 9 O 3.0591 -0.756 -0.7156 0
M  V30 10 C 0.6998 -0.3213 -1.0421 0
M  V30 11 C 0.7169 2.1192 -0.5895 0 CFG=1
M  V30 12 C 2.4043 3.7127 -1.5913 0
M  V30 13 C 4.4361 3.1848 -4.4411 0
M  V30 14 C 3.8097 3.8956 -2.1539 0
M  V30 15 C 4.521 0.7591 -5.119 0
M  V30 16 C 0.4231 0.7386 0.046 0 CFG=1
M  V30 17 C 0.1321 3.1069 0.4172 0
M  V30 18 C 4.6772 2.1769 -5.493 0
M  V30 19 C -1.0739 0.9393 0.4502 0 CFG=1
M  V30 20 C 1.2756 0.4581 1.3124 0
M  V30 21 C -1.14 2.4007 0.9292 0 CFG=2
M  V30 22 O 4.9949 2.5044 -6.6292 0
M  V30 23 O -1.9283 0.8995 -0.6959 0
M  V30 24 C -1.5796 -0.0517 1.5151 0
M  V30 25 O -2.2932 2.979 0.3201 0
M  V30 26 C -2.8009 2.031 -0.6127 0
M  V30 27 O -1.521 0.2048 2.7208 0
M  V30 28 C -2.1095 -1.3877 1.0053 0
M  V30 29 C -2.8971 2.6813 -1.9867 0
M  V30 30 C -4.1791 1.5749 -0.1411 0
M  V30 31 O -2.5055 -2.2071 2.1059 0
M  V30 32 C -2.857 -3.4766 1.7553 0
M  V30 33 O -2.835 -3.8963 0.6045 0
M  V30 34 C -3.2405 -4.215 2.9336 0
M  V30 35 O -3.6249 -5.5221 2.785 0
M  V30 36 C -3.308 -3.8666 4.2727 0
M  V30 37 C -3.935 -5.9995 4.0202 0
M  V30 38 C -3.7553 -5.0122 4.9799 0
M  V30 39 C -4.3719 -7.2918 4.3003 0
M  V30 40 C -4.0277 -5.3228 6.3236 0
M  V30 41 C -4.6381 -7.5825 5.6424 0
M  V30 42 C -4.4695 -6.6163 6.6382 0
M  V30 43 H 2.1313 -0.8949 -2.5169 0
M  V30 44 H 2.8406 2.1657 -0.1818 0
M  V30 45 H 4.1232 -0.6559 -3.6478 0
M  V30 46 H 5.2088 0.0287 -1.4867 0
M  V30 47 H 4.9082 1.5909 -0.7243 0
M  V30 48 H 6.0529 1.454 -2.0557 0
M  V30 49 H 2.8423 -1.6953 -0.5744 0
M  V30 50 H 0.5528 -1.3236 -0.6254 0
M  V30 51 H -0.0197 -0.2098 -1.8625 0
M  V30 52 H 0.1069 2.2201 -1.4996 0
M  V30 53 H 2.2486 4.452 -0.7967 0
M  V30 54 H 1.6674 3.9333 -2.3749 0
M  V30 55 H 4.5239 4.2165 -4.7621 0
M  V30 56 H 4.5482 3.8467 -1.3455 0
M  V30 57 H 3.8914 4.9023 -2.5818 0
M  V30 58 H 4.6924 0.0331 -5.9041 0
M  V30 59 H 0.8346 3.2705 1.242 0
M  V30 60 H -0.0884 4.0758 -0.0423 0
M  V30 61 H 1.0176 1.1218 2.1443 0
M  V30 62 H 1.122 -0.5699 1.66 0
M  V30 63 H 2.3475 0.5817 1.1492 0
M  V30 64 H -1.2213 2.5349 2.012 0
M  V30 65 H -2.9801 -1.2041 0.3688 0
M  V30 66 H -1.3124 -1.8829 0.4458 0
M  V30 67 H -1.9148 3.0328 -2.3195 0
M  V30 68 H -3.258 1.9717 -2.7384 0
M  V30 69 H -3.558 3.5544 -1.9685 0
M  V30 70 H -4.1273 1.1506 0.8674 0
M  V30 71 H -4.5882 0.8012 -0.799 0
M  V30 72 H -4.8801 2.4152 -0.0941 0
M  V30 73 H -3.0619 -2.8972 4.6853 0
M  V30 74 H -4.4971 -8.0275 3.5154 0
M  V30 75 H -3.9007 -4.58 7.1056 0
M  V30 76 H -4.9824 -8.5783 5.9139 0
M  V30 77 H -4.6844 -6.8703 7.6744 0
M  V30 END ATOM
M  V30 BEGIN BOND
M  V30 1 1 1 2
M  V30 2 1 2 3
M  V30 3 1 2 4
M  V30 4 1 2 5
M  V30 5 1 3 6
M  V30 6 1 3 7
M  V30 7 1 3 8
M  V30 8 1 4 9
M  V30 9 1 4 10
M  V30 10 1 5 11
M  V30 11 1 5 12
M  V30 12 2 6 13
M  V30 13 1 6 14
M  V30 14 2 7 15
M  V30 15 1 10 16
M  V30 16 1 11 17
M  V30 17 1 13 18
M  V30 18 1 16 19
M  V30 19 1 16 20
M  V30 20 1 17 21
M  V30 21 2 18 22
M  V30 22 1 19 23
M  V30 23 1 19 24
M  V30 24 1 21 25
M  V30 25 1 23 26
M  V30 26 2 24 27
M  V30 27 1 24 28
M  V30 28 1 26 29
M  V30 29 1 26 30
M  V30 30 1 28 31
M  V30 31 1 31 32
M  V30 32 2 32 33
M  V30 33 1 32 34
M  V30 34 1 34 35
M  V30 35 2 34 36
M  V30 36 1 35 37
M  V30 37 1 36 38
M  V30 38 1 37 39
M  V30 39 1 38 40
M  V30 40 2 39 41
M  V30 41 2 40 42
M  V30 42 1 11 16
M  V30 43 1 12 14
M  V30 44 1 15 18
M  V30 45 1 19 21
M  V30 46 1 25 26
M  V30 47 2 37 38
M  V30 48 1 41 42
M  V30 49 1 4 43
M  V30 50 1 5 44
M  V30 51 1 7 45
M  V30 52 1 8 46
M  V30 53 1 8 47
M  V30 54 1 8 48
M  V30 55 1 9 49
M  V30 56 1 10 50
M  V30 57 1 10 51
M  V30 58 1 11 52
M  V30 59 1 12 53
M  V30 60 1 12 54
M  V30 61 1 13 55
M  V30 62 1 14 56
M  V30 63 1 14 57
M  V30 64 1 15 58
M  V30 65 1 17 59
M  V30 66 1 17 60
M  V30 67 1 20 61
M  V30 68 1 20 62
M  V30 69 1 20 63
M  V30 70 1 21 64
M  V30 71 1 28 65
M  V30 72 1 28 66
M  V30 73 1 29 67
M  V30 74 1 29 68
M  V30 75 1 29 69
M  V30 76 1 30 70
M  V30 77 1 30 71
M  V30 78 1 30 72
M  V30 79 1 36 73
M  V30 80 1 39 74
M  V30 81 1 40 75
M  V30 82 1 41 76
M  V30 83 1 42 77
M  V30 END BOND
M  V30 BEGIN COLLECTION
M  V30 MDLV30/STEABS ATOMS=(8 2 3 4 5 11 16 19 21)
M  V30 END COLLECTION
M  V30 END CTAB
M  END
>  <level_0>
1337

>  <index>
1337

>  <NO.>
1338

>  <Name>
triamcinolone furetonide

>  <SMILES>
CC1(C)O[C@@H]2C[C@H]3[C@@H]4CCC5=CC(=O)C=C[C@]5(C)[C@@]4(F)[C@@H](O)C[C@]3(C)[C@]2(C(=O)COC(=O)c2cc3ccccc3o2)O1

>  <logBB>


>  <Class>
1

>  <MW>
578.23

>  <nHBAcc>
8

>  <nHBDon>
1

>  <SLogP>
5.03

>  <TopoPSA>
112.27

>  <MMFF94 Energy>
185.82

$$$$
CC1(C)S[C@@H]2[C@H](NC(=O)CCC[C@@H](N)C(=O)O)C(=O)N2[C@H]1C(=O)O
Actelion Java MolfileCreator 2.0

  0  0  0  0  0  0              0 V3000
M  V30 BEGIN CTAB
M  V30 COUNTS 45 46 0 0 0
M  V30 BEGIN ATOM
M  V30 1 S -1.1294 0.0806 0.8066 0
M  V30 2 C -2.5832 -0.238 1.9353 0
M  V30 3 C 0.0561 -0.2745 2.169 0 CFG=1
M  V30 4 C -2.1088 -1.4154 2.8155 0 CFG=1
M  V30 5 C -2.8655 1.0575 2.7091 0
M  V30 6 C -3.7907 -0.6162 1.0751 0
M  V30 7 N -0.664 -1.2923 2.9338 0
M  V30 8 C 1.1754 -1.3252 1.9425 0 CFG=1
M  V30 9 C -2.8309 -1.503 4.1556 0
M  V30 10 C 0.2042 -2.2992 2.6576 0
M  V30 11 N 1.5217 -1.6636 0.5377 0
M  V30 12 O -4.0374 -1.6376 4.2993 0
M  V30 13 O -2.0347 -1.3941 5.2375 0
M  V30 14 O 0.1065 -3.4956 2.7993 0
M  V30 15 C 2.2203 -0.7746 -0.2469 0
M  V30 16 O 2.6368 0.2942 0.1868 0
M  V30 17 C 2.4328 -1.2614 -1.6667 0
M  V30 18 C 2.8891 -0.16 -2.6222 0
M  V30 19 C 1.7655 0.8373 -2.9386 0
M  V30 20 C 2.2168 1.9643 -3.8767 0 CFG=1
M  V30 21 N 2.597 1.4172 -5.2017 0
M  V30 22 C 1.0932 2.9949 -4.0463 0
M  V30 23 O 0.4663 3.219 -5.0718 0
M  V30 24 O 0.8391 3.6961 -2.925 0
M  V30 25 H 0.3408 0.5912 2.7742 0
M  V30 26 H -2.3018 -2.374 2.3137 0
M  V30 27 H -2.0355 1.3385 3.3667 0
M  V30 28 H -3.0555 1.8973 2.0299 0
M  V30 29 H -3.7572 0.9549 3.3377 0
M  V30 30 H -4.0719 0.196 0.3947 0
M  V30 31 H -4.6632 -0.8309 1.702 0
M  V30 32 H -3.5969 -1.5094 0.4699 0
M  V30 33 H 2.0802 -1.1471 2.5372 0
M  V30 34 H 1.2149 -2.5439 0.1385 0
M  V30 35 H -2.6362 -1.5033 6.0035 0
M  V30 36 H 1.5104 -1.7247 -2.0359 0
M  V30 37 H 3.2013 -2.0425 -1.6252 0
M  V30 38 H 3.2287 -0.6353 -3.5498 0
M  V30 39 H 3.7499 0.3737 -2.2019 0
M  V30 40 H 1.3933 1.2755 -2.0046 0
M  V30 41 H 0.9126 0.3035 -3.3793 0
M  V30 42 H 3.0886 2.486 -3.4659 0
M  V30 43 H 2.8647 2.201 -5.8008 0
M  V30 44 H 1.751 1.0486 -5.6435 0
M  V30 45 H 0.1154 4.3063 -3.1774 0
M  V30 END ATOM
M  V30 BEGIN BOND
M  V30 1 1 1 2
M  V30 2 1 1 3
M  V30 3 1 2 4
M  V30 4 1 2 5
M  V30 5 1 2 6
M  V30 6 1 3 7
M  V30 7 1 3 8
M  V30 8 1 4 9
M  V30 9 1 7 10
M  V30 10 1 8 11
M  V30 11 2 9 12
M  V30 12 1 9 13
M  V30 13 2 10 14
M  V30 14 1 11 15
M  V30 15 2 15 16
M  V30 16 1 15 17
M  V30 17 1 17 18
M  V30 18 1 18 19
M  V30 19 1 19 20
M  V30 20 1 20 21
M  V30 21 1 20 22
M  V30 22 2 22 23
M  V30 23 1 22 24
M  V30 24 1 4 7
M  V30 25 1 8 10
M  V30 26 1 3 25
M  V30 27 1 4 26
M  V30 28 1 5 27
M  V30 29 1 5 28
M  V30 30 1 5 29
M  V30 31 1 6 30
M  V30 32 1 6 31
M  V30 33 1 6 32
M  V30 34 1 8 33
M  V30 35 1 11 34
M  V30 36 1 13 35
M  V30 37 1 17 36
M  V30 38 1 17 37
M  V30 39 1 18 38
M  V30 40 1 18 39
M  V30 41 1 19 40
M  V30 42 1 19 41
M  V30 43 1 20 42
M  V30 44 1 21 43
M  V30 45 1 21 44
M  V30 46 1 24 45
M  V30 END BOND
M  V30 BEGIN COLLECTION
M  V30 MDLV30/STEABS ATOMS=(4 3 4 8 20)
M  V30 END COLLECTION
M  V30 END CTAB
M  END
>  <level_0>
1354

>  <index>
1354

>  <NO.>
1355

>  <Name>
penicillin n

>  <SMILES>
CC1(C)S[C@@H]2[C@H](NC(=O)CCC[C@@H](N)C(=O)O)C(=O)N2[C@H]1C(=O)O

>  <logBB>


>  <Class>
-1

>  <MW>
359.12

>  <nHBAcc>
6

>  <nHBDon>
4

>  <SLogP>
-0.8

>  <TopoPSA>
150.03

>  <MMFF94 Energy>
34.312

$$$$
CC1(C)S[C@@H]2[C@H](NC(=O)[C@H](N)c3ccccc3)C(=O)N2[C@H]1C(=O)O.CC1(C)[C@H](C(=O)O)N2C(=O)C[C@H]2S1(=O)=O
Actelion Java MolfileCreator 2.0

  0  0  0  0  0  0              0 V3000
M  V30 BEGIN CTAB
M  V30 COUNTS 69 72 0 0 0
M  V30 BEGIN ATOM
M  V30 1 S 1.3909 -0.818 6.6405 0
M  V30 2 O 2.574 -0.7736 5.801 0
M  V30 3 O 1.5277 -1.0949 8.0581 0
M  V30 4 C 0.4565 0.7553 6.4402 0
M  V30 5 C 0.1834 -1.9577 5.9256 0 CFG=1
M  V30 6 C -0.9836 0.274 6.1853 0 CFG=1
M  V30 7 C 0.6299 1.6436 7.679 0
M  V30 8 C 0.9952 1.5304 5.2226 0
M  V30 9 N -0.8677 -1.0112 5.5161 0
M  V30 10 C 0.2978 -2.3546 4.4451 0
M  V30 11 C -1.7853 0.043 7.4612 0
M  V30 12 C -0.7005 -1.2107 4.1863 0
M  V30 13 O -1.8037 -0.9713 8.1387 0
M  V30 14 O -2.4871 1.1304 7.8373 0
M  V30 15 O -1.1089 -0.5841 3.2408 0
M  V30 16 S 1.1757 -0.3476 -3.9896 0
M  V30 17 C 2.6303 -0.3988 -2.823 0
M  V30 18 C 0.651 -2.0362 -3.482 0 CFG=1
M  V30 19 C 2.0831 -1.1549 -1.5956 0 CFG=1
M  V30 20 C 3.7862 -1.1046 -3.5444 0
M  V30 21 C 3.0262 1.0375 -2.4744 0
M  V30 22 N 1.0619 -2.07 -2.0777 0
M  V30 23 C -0.8058 -2.2624 -2.9969 0 CFG=1
M  V30 24 C 3.1422 -1.9014 -0.799 0
M  V30 25 C -0.1975 -2.1342 -1.5757 0
M  V30 26 N -1.823 -1.2415 -3.3582 0
M  V30 27 O 3.4901 -3.0632 -0.9378 0
M  V30 28 O 3.7626 -1.1141 0.1053 0
M  V30 29 O -0.6142 -1.9752 -0.4521 0
M  V30 30 C -2.2999 -1.1421 -4.6492 0
M  V30 31 O -1.9062 -1.8911 -5.545 0
M  V30 32 C -3.3393 -0.0119 -4.8742 0 CFG=2
M  V30 33 N -4.2979 -0.4192 -5.9169 0
M  V30 34 C -2.6807 1.3098 -5.2238 0
M  V30 35 C -1.6715 1.3972 -6.1961 0
M  V30 36 C -3.1091 2.4901 -4.5936 0
M  V30 37 C -1.0889 2.6267 -6.509 0
M  V30 38 C -2.5267 3.7189 -4.9103 0
M  V30 39 C -1.5149 3.7862 -5.8652 0
M  V30 40 H -0.1647 -2.7289 6.6174 0
M  V30 41 H -1.5418 0.9577 5.5351 0
M  V30 42 H 0.3163 1.1451 8.6018 0
M  V30 43 H 1.6818 1.9203 7.8153 0
M  V30 44 H 0.0499 2.5681 7.5828 0
M  V30 45 H 0.3937 2.4267 5.0339 0
M  V30 46 H 0.9931 0.9288 4.3093 0
M  V30 47 H 2.0293 1.8546 5.3876 0
M  V30 48 H 1.2727 -2.2147 3.974 0
M  V30 49 H -0.0984 -3.3431 4.1972 0
M  V30 50 H -2.9471 0.8554 8.6606 0
M  V30 51 H 1.0813 -2.8519 -4.0704 0
M  V30 52 H 1.583 -0.4649 -0.9013 0
M  V30 53 H 4.6886 -1.1141 -2.9223 0
M  V30 54 H 4.051 -0.5909 -4.4764 0
M  V30 55 H 3.549 -2.1454 -3.7913 0
M  V30 56 H 2.2016 1.5861 -2.0043 0
M  V30 57 H 3.867 1.0483 -1.7717 0
M  V30 58 H 3.3381 1.5979 -3.3636 0
M  V30 59 H -1.1845 -3.2749 -3.1853 0
M  V30 60 H -2.1463 -0.5802 -2.6604 0
M  V30 61 H 4.394 -1.7175 0.5534 0
M  V30 62 H -3.9049 0.1001 -3.9406 0
M  V30 63 H -4.7665 0.4115 -6.2743 0
M  V30 64 H -3.7557 -0.7961 -6.6979 0
M  V30 65 H -1.3229 0.5058 -6.7159 0
M  V30 66 H -3.9046 2.4625 -3.8513 0
M  V30 67 H -0.3009 2.6771 -7.2562 0
M  V30 68 H -2.8643 4.6251 -4.4134 0
M  V30 69 H -1.0603 4.7423 -6.111 0
M  V30 END ATOM
M  V30 BEGIN BOND
M  V30 1 2 1 2
M  V30 2 2 1 3
M  V30 3 1 1 4
M  V30 4 1 1 5
M  V30 5 1 4 6
M  V30 6 1 4 7
M  V30 7 1 4 8
M  V30 8 1 5 9
M  V30 9 1 5 10
M  V30 10 1 6 11
M  V30 11 1 9 12
M  V30 12 2 11 13
M  V30 13 1 11 14
M  V30 14 2 12 15
M  V30 15 1 16 17
M  V30 16 1 16 18
M  V30 17 1 17 19
M  V30 18 1 17 20
M  V30 19 1 17 21
M  V30 20 1 18 22
M  V30 21 1 18 23
M  V30 22 1 19 24
M  V30 23 1 22 25
M  V30 24 1 23 26
M  V30 25 2 24 27
M  V30 26 1 24 28
M  V30 27 2 25 29
M  V30 28 1 26 30
M  V30 29 2 30 31
M  V30 30 1 30 32
M  V30 31 1 32 33
M  V30 32 1 32 34
M  V30 33 2 34 35
M  V30 34 1 34 36
M  V30 35 1 35 37
M  V30 36 2 36 38
M  V30 37 2 37 39
M  V30 38 1 6 9
M  V30 39 1 10 12
M  V30 40 1 19 22
M  V30 41 1 23 25
M  V30 42 1 38 39
M  V30 43 1 5 40
M  V30 44 1 6 41
M  V30 45 1 7 42
M  V30 46 1 7 43
M  V30 47 1 7 44
M  V30 48 1 8 45
M  V30 49 1 8 46
M  V30 50 1 8 47
M  V30 51 1 10 48
M  V30 52 1 10 49
M  V30 53 1 14 50
M  V30 54 1 18 51
M  V30 55 1 19 52
M  V30 56 1 20 53
M  V30 57 1 20 54
M  V30 58 1 20 55
M  V30 59 1 21 56
M  V30 60 1 21 57
M  V30 61 1 21 58
M  V30 62 1 23 59
M  V30 63 1 26 60
M  V30 64 1 28 61
M  V30 65 1 32 62
M  V30 66 1 33 63
M  V30 67 1 33 64
M  V30 68 1 35 65
M  V30 69 1 36 66
M  V30 70 1 37 67
M  V30 71 1 38 68
M  V30 72 1 39 69
M  V30 END BOND
M  V30 BEGIN COLLECTION
M  V30 MDLV30/STEABS ATOMS=(6 5 6 18 19 23 32)
M  V30 END COLLECTION
M  V30 END CTAB
M  END
>  <level_0>
1361

>  <index>
1361

>  <NO.>
1362

>  <Name>
sultamicillin

>  <SMILES>
CC1(C)S[C@@H]2[C@H](NC(=O)[C@H](N)c3ccccc3)C(=O)N2[C@H]1C(=O)O.CC1(C)[C@H](C(=O)O)N2C(=O)C[C@H]2S1(=O)=O

>  <logBB>


>  <Class>
-1

>  <MW>
582.15

>  <nHBAcc>
9

>  <nHBDon>
4

>  <SLogP>
-0.48

>  <TopoPSA>
204.48

>  <MMFF94 Energy>
88.307

$$$$
CC1(C)S[C@@H]2[C@H](NC(=O)[C@H](NC(=O)N3CCN(S(C)(=O)=O)C3=O)c3ccccc3)C(=O)N2[C@H]1C(=O)O
Actelion Java MolfileCreator 2.0

  0  0  0  0  0  0              0 V3000
M  V30 BEGIN CTAB
M  V30 COUNTS 61 64 0 0 0
M  V30 BEGIN ATOM
M  V30 1 S 3.0331 -6.3199 -0.2456 0
M  V30 2 O 4.1397 -7.2572 -0.243 0
M  V30 3 O 1.914 -6.515 0.6499 0
M  V30 4 N 3.6829 -4.8187 0.0617 0
M  V30 5 C 2.4451 -6.2032 -1.9249 0
M  V30 6 C 2.9507 -3.6208 -0.0425 0
M  V30 7 C 4.6725 -4.7337 1.1542 0
M  V30 8 O 1.9455 -3.474 -0.7163 0
M  V30 9 N 3.5858 -2.6669 0.7376 0
M  V30 10 C 4.7671 -3.2252 1.3659 0
M  V30 11 C 3.2366 -1.347 0.9305 0
M  V30 12 O 3.9026 -0.5952 1.6409 0
M  V30 13 N 2.1137 -0.929 0.2838 0
M  V30 14 C 1.5795 0.4131 0.4261 0 CFG=2
M  V30 15 C 0.6217 0.4813 1.6038 0
M  V30 16 C 0.9092 0.8562 -0.8982 0
M  V30 17 C -0.6023 -0.2061 1.586 0
M  V30 18 C 0.9571 1.2318 2.7414 0
M  V30 19 O 0.861 0.1456 -1.9024 0
M  V30 20 N 0.3977 2.1384 -0.8917 0
M  V30 21 C -1.481 -0.1196 2.6667 0
M  V30 22 C 0.0771 1.3146 3.8217 0
M  V30 23 C -0.2589 2.718 -2.0925 0 CFG=2
M  V30 24 C -1.143 0.6433 3.7819 0
M  V30 25 C -0.9429 4.0928 -1.8689 0
M  V30 26 C -1.6925 2.234 -2.4549 0 CFG=2
M  V30 27 O -0.6564 5.1422 -1.3423 0
M  V30 28 N -2.1237 3.6267 -2.3418 0
M  V30 29 S -2.6696 1.3624 -1.162 0
M  V30 30 C -3.4309 3.9176 -1.787 0 CFG=2
M  V30 31 C -3.6801 2.8531 -0.6952 0
M  V30 32 C -4.4445 3.8939 -2.9264 0
M  V30 33 C -5.1421 2.4198 -0.5423 0
M  V30 34 C -3.1644 3.3395 0.6705 0
M  V30 35 O -4.4211 3.1958 -3.9276 0
M  V30 36 O -5.4743 4.7431 -2.7205 0
M  V30 37 H 1.5628 -5.5654 -1.9672 0
M  V30 38 H 2.1754 -7.2109 -2.2501 0
M  V30 39 H 3.2487 -5.819 -2.5556 0
M  V30 40 H 4.2887 -5.2193 2.0577 0
M  V30 41 H 5.6375 -5.1637 0.8757 0
M  V30 42 H 4.8195 -2.9507 2.4244 0
M  V30 43 H 5.645 -2.8066 0.8602 0
M  V30 44 H 1.6371 -1.5551 -0.362 0
M  V30 45 H 2.4172 1.1039 0.5879 0
M  V30 46 H -0.8837 -0.8135 0.7269 0
M  V30 47 H 1.9148 1.7463 2.8007 0
M  V30 48 H 0.4184 2.6675 -0.0246 0
M  V30 49 H -2.4281 -0.6524 2.6373 0
M  V30 50 H 0.3483 1.8958 4.6995 0
M  V30 51 H 0.4319 2.7415 -2.9444 0
M  V30 52 H -1.8259 0.7049 4.6253 0
M  V30 53 H -1.8058 1.8301 -3.4649 0
M  V30 54 H -3.4097 4.9312 -1.3681 0
M  V30 55 H -5.7762 3.2786 -0.2935 0
M  V30 56 H -5.5409 1.9636 -1.4552 0
M  V30 57 H -5.2624 1.6875 0.2652 0
M  V30 58 H -2.1023 3.6044 0.65 0
M  V30 59 H -3.7148 4.2318 0.9912 0
M  V30 60 H -3.3005 2.5793 1.449 0
M  V30 61 H -6.037 4.634 -3.5174 0
M  V30 END ATOM
M  V30 BEGIN BOND
M  V30 1 2 1 2
M  V30 2 2 1 3
M  V30 3 1 1 4
M  V30 4 1 1 5
M  V30 5 1 4 6
M  V30 6 1 4 7
M  V30 7 2 6 8
M  V30 8 1 6 9
M  V30 9 1 7 10
M  V30 10 1 9 11
M  V30 11 2 11 12
M  V30 12 1 11 13
M  V30 13 1 13 14
M  V30 14 1 14 15
M  V30 15 1 14 16
M  V30 16 2 15 17
M  V30 17 1 15 18
M  V30 18 2 16 19
M  V30 19 1 16 20
M  V30 20 1 17 21
M  V30 21 2 18 22
M  V30 22 1 20 23
M  V30 23 2 21 24
M  V30 24 1 23 25
M  V30 25 1 23 26
M  V30 26 2 25 27
M  V30 27 1 25 28
M  V30 28 1 26 29
M  V30 29 1 28 30
M  V30 30 1 29 31
M  V30 31 1 30 32
M  V30 32 1 31 33
M  V30 33 1 31 34
M  V30 34 2 32 35
M  V30 35 1 32 36
M  V30 36 1 9 10
M  V30 37 1 22 24
M  V30 38 1 26 28
M  V30 39 1 30 31
M  V30 40 1 5 37
M  V30 41 1 5 38
M  V30 42 1 5 39
M  V30 43 1 7 40
M  V30 44 1 7 41
M  V30 45 1 10 42
M  V30 46 1 10 43
M  V30 47 1 13 44
M  V30 48 1 14 45
M  V30 49 1 17 46
M  V30 50 1 18 47
M  V30 51 1 20 48
M  V30 52 1 21 49
M  V30 53 1 22 50
M  V30 54 1 23 51
M  V30 55 1 24 52
M  V30 56 1 26 53
M  V30 57 1 30 54
M  V30 58 1 33 55
M  V30 59 1 33 56
M  V30 60 1 33 57
M  V30 61 1 34 58
M  V30 62 1 34 59
M  V30 63 1 34 60
M  V30 64 1 36 61
M  V30 END BOND
M  V30 BEGIN COLLECTION
M  V30 MDLV30/STEABS ATOMS=(4 14 23 26 30)
M  V30 END COLLECTION
M  V30 END CTAB
M  END
>  <level_0>
1364

>  <index>
1364

>  <NO.>
1365

>  <Name>
mezlocillin

>  <SMILES>
CC1(C)S[C@@H]2[C@H](NC(=O)[C@H](NC(=O)N3CCN(S(C)(=O)=O)C3=O)c3ccccc3)C(=O)N2[C@H]1C(=O)O

>  <logBB>


>  <Class>
-1

>  <MW>
539.11

>  <nHBAcc>
8

>  <nHBDon>
3

>  <SLogP>
-0.23

>  <TopoPSA>
173.5

>  <MMFF94 Energy>
-128.55

$$$$
CC1(C)S[C@@H]2[C@H](NC(=O)[C@H](NC(=O)Nc3cnc(Nc4ccc(S(N)(=O)=O)cc4)[nH]c3=O)c3ccc(O)cc3)C(=O)N2[C@H]1C(=O)O
Actelion Java MolfileCreator 2.0

  0  0  0  0  0  0              0 V3000
M  V30 BEGIN CTAB
M  V30 COUNTS 74 78 0 0 0
M  V30 BEGIN ATOM
M  V30 1 S 6.8465 -7.6639 6.0296 0
M  V30 2 O 7.9274 -6.7225 5.857 0
M  V30 3 O 7.0662 -9.0894 6.1089 0
M  V30 4 N 6.0811 -7.2392 7.4615 0
M  V30 5 C 5.5904 -7.3347 4.8307 0
M  V30 6 C 5.4333 -6.0422 4.3337 0
M  V30 7 C 4.7915 -8.3721 4.3545 0
M  V30 8 C 4.4529 -5.7841 3.3676 0
M  V30 9 C 3.8173 -8.1011 3.3878 0
M  V30 10 C 3.6293 -6.8033 2.8742 0
M  V30 11 N 2.6153 -6.6082 1.9152 0
M  V30 12 C 2.1187 -5.4446 1.3853 0
M  V30 13 N 2.4507 -4.2469 1.7516 0
M  V30 14 N 1.1865 -5.6303 0.3939 0
M  V30 15 C 1.8625 -3.1703 1.1346 0
M  V30 16 C 0.5663 -4.6069 -0.2593 0
M  V30 17 C 0.9484 -3.2334 0.1593 0
M  V30 18 O -0.263 -4.7984 -1.1463 0
M  V30 19 N 0.3253 -2.196 -0.4983 0
M  V30 20 C 0.4811 -0.8491 -0.3005 0
M  V30 21 O 1.2173 -0.3274 0.5271 0
M  V30 22 N -0.295 -0.1151 -1.1554 0
M  V30 23 C -0.3175 1.3366 -1.1166 0 CFG=2
M  V30 24 C -1.3633 1.8378 -0.1358 0
M  V30 25 C -0.5713 1.8678 -2.5473 0
M  V30 26 C -2.7373 1.694 -0.3938 0
M  V30 27 C -0.9634 2.4487 1.0634 0
M  V30 28 O -0.9375 1.1444 -3.475 0
M  V30 29 N -0.3654 3.2217 -2.709 0
M  V30 30 C -3.6875 2.1817 0.5063 0
M  V30 31 C -1.9134 2.9345 1.9632 0
M  V30 32 C -0.5781 3.8912 -4.0192 0 CFG=2
M  V30 33 C -3.2658 2.8024 1.6763 0
M  V30 34 C -0.4904 5.4405 -3.9847 0
M  V30 35 C -2.0392 4.1361 -4.4951 0 CFG=2
M  V30 36 O -4.1594 3.2958 2.58 0
M  V30 37 O 0.257 6.2682 -3.5196 0
M  V30 38 N -1.7218 5.5623 -4.5359 0
M  V30 39 S -3.3917 4.0178 -3.2529 0
M  V30 40 C -2.7332 6.5228 -4.1406 0 CFG=2
M  V30 41 C -3.5357 5.8557 -3.0011 0
M  V30 42 C -3.5652 6.8664 -5.3718 0
M  V30 43 C -5.0224 6.2253 -2.9611 0
M  V30 44 C -2.9113 6.1746 -1.6314 0
M  V30 45 O -3.8506 6.1316 -6.304 0
M  V30 46 O -4.0342 8.1324 -5.3426 0
M  V30 47 H 6.5652 -6.4516 7.8934 0
M  V30 48 H 5.9981 -8.0558 8.0669 0
M  V30 49 H 6.063 -5.2282 4.6863 0
M  V30 50 H 4.915 -9.3865 4.7265 0
M  V30 51 H 4.3642 -4.7639 3.0044 0
M  V30 52 H 3.1992 -8.9257 3.0398 0
M  V30 53 H 2.2093 -7.47 1.5846 0
M  V30 54 H 0.9204 -6.5525 0.0955 0
M  V30 55 H 2.2056 -2.2107 1.5102 0
M  V30 56 H -0.341 -2.4907 -1.2032 0
M  V30 57 H -0.8028 -0.5565 -1.9095 0
M  V30 58 H 0.6773 1.6943 -0.8214 0
M  V30 59 H -3.08 1.2089 -1.3063 0
M  V30 60 H 0.0925 2.5381 1.3131 0
M  V30 61 H -0.1073 3.7763 -1.8977 0
M  V30 62 H -4.742 2.0695 0.2749 0
M  V30 63 H -1.5981 3.406 2.8899 0
M  V30 64 H 0.0753 3.4631 -4.7892 0
M  V30 65 H -2.2833 3.7226 -5.4779 0
M  V30 66 H -5.0562 3.0851 2.2727 0
M  V30 67 H -2.2286 7.4355 -3.801 0
M  V30 68 H -5.5529 5.9246 -3.8713 0
M  V30 69 H -5.5329 5.7481 -2.1157 0
M  V30 70 H -5.1488 7.3076 -2.8428 0
M  V30 71 H -3.4458 5.6729 -0.8157 0
M  V30 72 H -2.9559 7.2518 -1.4324 0
M  V30 73 H -1.8595 5.8773 -1.5681 0
M  V30 74 H -4.5346 8.2226 -6.1822 0
M  V30 END ATOM
M  V30 BEGIN BOND
M  V30 1 2 1 2
M  V30 2 2 1 3
M  V30 3 1 1 4
M  V30 4 1 1 5
M  V30 5 2 5 6
M  V30 6 1 5 7
M  V30 7 1 6 8
M  V30 8 2 7 9
M  V30 9 2 8 10
M  V30 10 1 10 11
M  V30 11 1 11 12
M  V30 12 2 12 13
M  V30 13 1 12 14
M  V30 14 1 13 15
M  V30 15 1 14 16
M  V30 16 2 15 17
M  V30 17 2 16 18
M  V30 18 1 17 19
M  V30 19 1 19 20
M  V30 20 2 20 21
M  V30 21 1 20 22
M  V30 22 1 22 23
M  V30 23 1 23 24
M  V30 24 1 23 25
M  V30 25 2 24 26
M  V30 26 1 24 27
M  V30 27 2 25 28
M  V30 28 1 25 29
M  V30 29 1 26 30
M  V30 30 2 27 31
M  V30 31 1 29 32
M  V30 32 2 30 33
M  V30 33 1 32 34
M  V30 34 1 32 35
M  V30 35 1 33 36
M  V30 36 2 34 37
M  V30 37 1 34 38
M  V30 38 1 35 39
M  V30 39 1 38 40
M  V30 40 1 39 41
M  V30 41 1 40 42
M  V30 42 1 41 43
M  V30 43 1 41 44
M  V30 44 2 42 45
M  V30 45 1 42 46
M  V30 46 1 9 10
M  V30 47 1 16 17
M  V30 48 1 31 33
M  V30 49 1 35 38
M  V30 50 1 40 41
M  V30 51 1 4 47
M  V30 52 1 4 48
M  V30 53 1 6 49
M  V30 54 1 7 50
M  V30 55 1 8 51
M  V30 56 1 9 52
M  V30 57 1 11 53
M  V30 58 1 14 54
M  V30 59 1 15 55
M  V30 60 1 19 56
M  V30 61 1 22 57
M  V30 62 1 23 58
M  V30 63 1 26 59
M  V30 64 1 27 60
M  V30 65 1 29 61
M  V30 66 1 30 62
M  V30 67 1 31 63
M  V30 68 1 32 64
M  V30 69 1 35 65
M  V30 70 1 36 66
M  V30 71 1 40 67
M  V30 72 1 43 68
M  V30 73 1 43 69
M  V30 74 1 43 70
M  V30 75 1 44 71
M  V30 76 1 44 72
M  V30 77 1 44 73
M  V30 78 1 46 74
M  V30 END BOND
M  V30 BEGIN COLLECTION
M  V30 MDLV30/STEABS ATOMS=(4 23 32 35 40)
M  V30 END COLLECTION
M  V30 END CTAB
M  END
>  <level_0>
1365

>  <index>
1365

>  <NO.>
1366

>  <Name>
piroxicillin

>  <SMILES>
CC1(C)S[C@@H]2[C@H](NC(=O)[C@H](NC(=O)Nc3cnc(Nc4ccc(S(N)(=O)=O)cc4)[nH]c3=O)c3ccc(O)cc3)C(=O)N2[C@H]1C(=O)O

>  <logBB>


>  <Class>
-1

>  <MW>
672.14

>  <nHBAcc>
11

>  <nHBDon>
8

>  <SLogP>
0.36

>  <TopoPSA>
266.01

>  <MMFF94 Energy>
-131.11

$$$$
CC1(C)S[C@@H]2[C@H](NC(=O)[C@H](NC(=O)c3ccc(-c4ccc(S(=O)(=O)N(CCO)CCO)cc4)[nH]c3=O)c3ccc(O)cc3)C(=O)N2[C@H]1C(=O)O
Actelion Java MolfileCreator 2.0

  0  0  0  0  0  0              0 V3000
M  V30 BEGIN CTAB
M  V30 COUNTS 85 89 0 0 0
M  V30 BEGIN ATOM
M  V30 1 S 0.2438 9.2991 -0.2438 0
M  V30 2 O 1.2178 10.0303 0.5383 0
M  V30 3 O -1.1513 9.6807 -0.2689 0
M  V30 4 N 0.8191 9.2323 -1.8495 0
M  V30 5 C 0.2961 7.5907 0.2477 0
M  V30 6 C 0.4921 10.454 -2.6528 0
M  V30 7 C 2.2502 8.8172 -2.0061 0
M  V30 8 C -0.5131 6.67 -0.4232 0
M  V30 9 C 1.1243 7.1847 1.2958 0
M  V30 10 C -0.7849 10.2351 -3.463 0
M  V30 11 C 2.3912 7.8496 -3.1867 0
M  V30 12 C -0.4827 5.3256 -0.0465 0
M  V30 13 C 1.1494 5.838 1.6676 0
M  V30 14 O -1.0683 11.39 -4.2488 0
M  V30 15 O 2.2229 8.5286 -4.4277 0
M  V30 16 C 0.3468 4.8976 1.0022 0
M  V30 17 C 0.3757 3.4783 1.3875 0
M  V30 18 N 0.6798 2.5461 0.4259 0
M  V30 19 C 0.102 3.0696 2.6364 0
M  V30 20 C 0.7313 1.1895 0.6479 0
M  V30 21 C 0.1329 1.6604 2.9607 0
M  V30 22 O 1.0151 0.4111 -0.2597 0
M  V30 23 C 0.4293 0.7263 2.0362 0
M  V30 24 C 0.4333 -0.7048 2.4568 0
M  V30 25 O 0.1691 -1.0445 3.6082 0
M  V30 26 N 0.7461 -1.6105 1.4823 0
M  V30 27 C 0.6807 -3.0394 1.7213 0 CFG=2
M  V30 28 C 1.6375 -3.7754 0.8005 0
M  V30 29 C -0.7793 -3.5381 1.5562 0
M  V30 30 C 1.3725 -3.9121 -0.5732 0
M  V30 31 C 2.8299 -4.3119 1.3135 0
M  V30 32 O -1.6118 -2.9948 0.8284 0
M  V30 33 N -1.0778 -4.6909 2.2572 0
M  V30 34 C 2.2625 -4.592 -1.4077 0
M  V30 35 C 3.7198 -4.9896 0.4782 0
M  V30 36 C -2.4246 -5.312 2.1699 0 CFG=2
M  V30 37 C 3.4284 -5.1275 -0.8727 0
M  V30 38 C -2.5669 -6.7077 2.8324 0
M  V30 39 C -2.7957 -6.0576 0.8602 0 CFG=2
M  V30 40 O 4.3236 -5.7997 -1.6508 0
M  V30 41 O -2.2707 -7.2147 3.8889 0
M  V30 42 N -3.0011 -7.2587 1.6703 0
M  V30 43 S -1.4548 -6.5924 -0.2799 0
M  V30 44 C -2.5681 -8.5545 1.1757 0 CFG=2
M  V30 45 C -2.0849 -8.348 -0.2737 0
M  V30 46 C -3.6773 -9.5849 1.3231 0
M  V30 47 C -3.188 -8.4541 -1.3354 0
M  V30 48 C -0.9253 -9.2827 -0.624 0
M  V30 49 O -4.8814 -9.3836 1.3032 0
M  V30 50 O -3.2051 -10.8453 1.4262 0
M  V30 51 H 1.3068 10.7154 -3.3378 0
M  V30 52 H 0.3851 11.3319 -2.0036 0
M  V30 53 H 2.5998 8.299 -1.1079 0
M  V30 54 H 2.8866 9.6988 -2.1433 0
M  V30 55 H -1.1697 6.9965 -1.2273 0
M  V30 56 H 1.7467 7.9028 1.826 0
M  V30 57 H -0.671 9.3789 -4.136 0
M  V30 58 H -1.6424 10.0454 -2.8109 0
M  V30 59 H 3.392 7.4064 -3.1822 0
M  V30 60 H 1.6486 7.0471 -3.1252 0
M  V30 61 H -1.1267 4.6163 -0.5637 0
M  V30 62 H 1.8041 5.5272 2.4802 0
M  V30 63 H -1.9144 11.2218 -4.6981 0
M  V30 64 H 2.2956 7.8622 -5.1324 0
M  V30 65 H 0.8947 2.8466 -0.5163 0
M  V30 66 H -0.1604 3.7651 3.4288 0
M  V30 67 H -0.0997 1.3854 3.9869 0
M  V30 68 H 0.9018 -1.2847 0.5291 0
M  V30 69 H 0.9646 -3.2259 2.7655 0
M  V30 70 H 0.4631 -3.4943 -1.0046 0
M  V30 71 H 3.079 -4.2033 2.3672 0
M  V30 72 H -0.3575 -5.1242 2.8256 0
M  V30 73 H 2.0268 -4.6912 -2.4626 0
M  V30 74 H 4.6395 -5.4057 0.8798 0
M  V30 75 H -3.1986 -4.6171 2.5197 0
M  V30 76 H -3.7115 -5.7149 0.3694 0
M  V30 77 H 3.9889 -5.8112 -2.5625 0
M  V30 78 H -1.7398 -8.8762 1.8226 0
M  V30 79 H -4.0479 -7.8141 -1.1076 0
M  V30 80 H -2.8168 -8.1756 -2.329 0
M  V30 81 H -3.5583 -9.4827 -1.414 0
M  V30 82 H -1.2525 -10.3284 -0.6097 0
M  V30 83 H -0.5305 -9.0788 -1.6262 0
M  V30 84 H -0.0969 -9.1906 0.0881 0
M  V30 85 H -4.0114 -11.3942 1.5366 0
M  V30 END ATOM
M  V30 BEGIN BOND
M  V30 1 2 1 2
M  V30 2 2 1 3
M  V30 3 1 1 4
M  V30 4 1 1 5
M  V30 5 1 4 6
M  V30 6 1 4 7
M  V30 7 2 5 8
M  V30 8 1 5 9
M  V30 9 1 6 10
M  V30 10 1 7 11
M  V30 11 1 8 12
M  V30 12 2 9 13
M  V30 13 1 10 14
M  V30 14 1 11 15
M  V30 15 2 12 16
M  V30 16 1 16 17
M  V30 17 1 17 18
M  V30 18 2 17 19
M  V30 19 1 18 20
M  V30 20 1 19 21
M  V30 21 2 20 22
M  V30 22 1 20 23
M  V30 23 1 23 24
M  V30 24 2 24 25
M  V30 25 1 24 26
M  V30 26 1 26 27
M  V30 27 1 27 28
M  V30 28 1 27 29
M  V30 29 2 28 30
M  V30 30 1 28 31
M  V30 31 2 29 32
M  V30 32 1 29 33
M  V30 33 1 30 34
M  V30 34 2 31 35
M  V30 35 1 33 36
M  V30 36 2 34 37
M  V30 37 1 36 38
M  V30 38 1 36 39
M  V30 39 1 37 40
M  V30 40 2 38 41
M  V30 41 1 38 42
M  V30 42 1 39 43
M  V30 43 1 42 44
M  V30 44 1 43 45
M  V30 45 1 44 46
M  V30 46 1 45 47
M  V30 47 1 45 48
M  V30 48 2 46 49
M  V30 49 1 46 50
M  V30 50 1 13 16
M  V30 51 2 21 23
M  V30 52 1 35 37
M  V30 53 1 39 42
M  V30 54 1 44 45
M  V30 55 1 6 51
M  V30 56 1 6 52
M  V30 57 1 7 53
M  V30 58 1 7 54
M  V30 59 1 8 55
M  V30 60 1 9 56
M  V30 61 1 10 57
M  V30 62 1 10 58
M  V30 63 1 11 59
M  V30 64 1 11 60
M  V30 65 1 12 61
M  V30 66 1 13 62
M  V30 67 1 14 63
M  V30 68 1 15 64
M  V30 69 1 18 65
M  V30 70 1 19 66
M  V30 71 1 21 67
M  V30 72 1 26 68
M  V30 73 1 27 69
M  V30 74 1 30 70
M  V30 75 1 31 71
M  V30 76 1 33 72
M  V30 77 1 34 73
M  V30 78 1 35 74
M  V30 79 1 36 75
M  V30 80 1 39 76
M  V30 81 1 40 77
M  V30 82 1 44 78
M  V30 83 1 47 79
M  V30 84 1 47 80
M  V30 85 1 47 81
M  V30 86 1 48 82
M  V30 87 1 48 83
M  V30 88 1 48 84
M  V30 89 1 50 85
M  V30 END BOND
M  V30 BEGIN COLLECTION
M  V30 MDLV30/STEABS ATOMS=(4 27 36 39 44)
M  V30 END COLLECTION
M  V30 END CTAB
M  END
>  <level_0>
1366

>  <index>
1366

>  <NO.>
1367

>  <Name>
piridicillin sodium

>  <SMILES>
CC1(C)S[C@@H]2[C@H](NC(=O)[C@H](NC(=O)c3ccc(-c4ccc(S(=O)(=O)N(CCO)CCO)cc4)[nH]c3=O)c3ccc(O)cc3)C(=O)N2[C@H]1C(=O)O

>  <logBB>


>  <Class>
-1

>  <MW>
729.18

>  <nHBAcc>
11

>  <nHBDon>
7

>  <SLogP>
-0.17

>  <TopoPSA>
246.74

>  <MMFF94 Energy>
55.338

$$$$
CC1(C)S[C@@H]2[C@H](NC(=O)[C@H](NS(=O)(=O)O)c3ccccc3)C(=O)N2[C@H]1C(=O)O
Actelion Java MolfileCreator 2.0

  0  0  0  0  0  0              0 V3000
M  V30 BEGIN CTAB
M  V30 COUNTS 47 49 0 0 0
M  V30 BEGIN ATOM
M  V30 1 S 0.8238 -5.364 -0.4118 0
M  V30 2 O 1.2898 -6.3869 0.4899 0
M  V30 3 O 0.8714 -5.5028 -1.8453 0
M  V30 4 O -0.6996 -5.087 0.0 0
M  V30 5 N 1.5971 -3.952 0.0037 0
M  V30 6 C 1.0644 -2.7274 -0.6277 0 CFG=2
M  V30 7 C 2.1608 -1.6875 -0.7879 0
M  V30 8 C -0.1062 -2.1984 0.2324 0
M  V30 9 C 2.6587 -0.9649 0.3081 0
M  V30 10 C 2.7215 -1.457 -2.0548 0
M  V30 11 O -0.2724 -2.5374 1.4066 0
M  V30 12 N -0.9565 -1.3218 -0.406 0
M  V30 13 C 3.6627 -0.0108 0.1339 0
M  V30 14 C 3.728 -0.5049 -2.2252 0
M  V30 15 C -2.134 -0.7367 0.2894 0 CFG=2
M  V30 16 C 4.1941 0.2213 -1.1321 0
M  V30 17 C -2.8545 0.4016 -0.4813 0
M  V30 18 C -1.8879 0.3572 1.3684 0 CFG=2
M  V30 19 O -3.24 0.5903 -1.6107 0
M  V30 20 N -2.7347 1.2439 0.5726 0
M  V30 21 S -0.2558 1.2063 1.3885 0
M  V30 22 C -2.4051 2.6537 0.4978 0 CFG=2
M  V30 23 C -0.862 2.7345 0.5161 0
M  V30 24 C -3.0813 3.3594 1.6688 0
M  V30 25 C -0.2911 3.9618 1.2345 0
M  V30 26 C -0.2958 2.6916 -0.9138 0
M  V30 27 O -3.2968 2.9088 2.7828 0
M  V30 28 O -3.4226 4.6331 1.378 0
M  V30 29 H -0.8749 -5.5755 0.8321 0
M  V30 30 H 1.6739 -3.8564 1.0172 0
M  V30 31 H 0.6609 -2.9542 -1.6225 0
M  V30 32 H 2.2674 -1.1313 1.3105 0
M  V30 33 H 2.386 -2.0262 -2.9202 0
M  V30 34 H -0.7536 -1.0458 -1.3623 0
M  V30 35 H 4.0322 0.5484 0.9899 0
M  V30 36 H 4.1549 -0.3363 -3.2107 0
M  V30 37 H -2.8326 -1.5223 0.603 0
M  V30 38 H 4.9799 0.9603 -1.2646 0
M  V30 39 H -2.3033 0.1383 2.3563 0
M  V30 40 H -2.8221 3.0562 -0.4332 0
M  V30 41 H -0.6483 4.8857 0.7654 0
M  V30 42 H -0.5715 3.9949 2.2932 0
M  V30 43 H 0.8044 3.9813 1.1886 0
M  V30 44 H 0.8006 2.7049 -0.916 0
M  V30 45 H -0.6162 1.8025 -1.4667 0
M  V30 46 H -0.6308 3.566 -1.484 0
M  V30 47 H -3.8474 4.9619 2.1997 0
M  V30 END ATOM
M  V30 BEGIN BOND
M  V30 1 2 1 2
M  V30 2 2 1 3
M  V30 3 1 1 4
M  V30 4 1 1 5
M  V30 5 1 5 6
M  V30 6 1 6 7
M  V30 7 1 6 8
M  V30 8 2 7 9
M  V30 9 1 7 10
M  V30 10 2 8 11
M  V30 11 1 8 12
M  V30 12 1 9 13
M  V30 13 2 10 14
M  V30 14 1 12 15
M  V30 15 2 13 16
M  V30 16 1 15 17
M  V30 17 1 15 18
M  V30 18 2 17 19
M  V30 19 1 17 20
M  V30 20 1 18 21
M  V30 21 1 20 22
M  V30 22 1 21 23
M  V30 23 1 22 24
M  V30 24 1 23 25
M  V30 25 1 23 26
M  V30 26 2 24 27
M  V30 27 1 24 28
M  V30 28 1 14 16
M  V30 29 1 18 20
M  V30 30 1 22 23
M  V30 31 1 4 29
M  V30 32 1 5 30
M  V30 33 1 6 31
M  V30 34 1 9 32
M  V30 35 1 10 33
M  V30 36 1 12 34
M  V30 37 1 13 35
M  V30 38 1 14 36
M  V30 39 1 15 37
M  V30 40 1 16 38
M  V30 41 1 18 39
M  V30 42 1 22 40
M  V30 43 1 25 41
M  V30 44 1 25 42
M  V30 45 1 25 43
M  V30 46 1 26 44
M  V30 47 1 26 45
M  V30 48 1 26 46
M  V30 49 1 28 47
M  V30 END BOND
M  V30 BEGIN COLLECTION
M  V30 MDLV30/STEABS ATOMS=(4 6 15 18 22)
M  V30 END COLLECTION
M  V30 END CTAB
M  END
>  <level_0>
1367

>  <index>
1367

>  <NO.>
1368

>  <Name>
suncillin

>  <SMILES>
CC1(C)S[C@@H]2[C@H](NC(=O)[C@H](NS(=O)(=O)O)c3ccccc3)C(=O)N2[C@H]1C(=O)O

>  <logBB>


>  <Class>
-1

>  <MW>
429.07

>  <nHBAcc>
6

>  <nHBDon>
4

>  <SLogP>
-0.25

>  <TopoPSA>
153.11

>  <MMFF94 Energy>
-112.69

$$$$
CC1(C)[C@H](NC(=O)/C(=N/OCC(=O)O)c2csc(N)n2)C(=O)N1OS(=O)(=O)O
Actelion Java MolfileCreator 2.0

  0  0  0  0  0  0              0 V3000
M  V30 BEGIN CTAB
M  V30 COUNTS 43 44 0 0 0
M  V30 BEGIN ATOM
M  V30 1 S 2.9603 -3.5366 2.7133 0
M  V30 2 O 3.6338 -3.9639 1.505 0
M  V30 3 O 3.2115 -2.2426 3.3056 0
M  V30 4 O 1.3524 -3.7423 2.4841 0
M  V30 5 O 3.3104 -4.6636 3.8114 0
M  V30 6 N 0.7444 -2.644 1.8638 0
M  V30 7 C -0.2561 -1.9961 2.5012 0
M  V30 8 C 0.0613 -2.7737 0.5742 0
M  V30 9 O -0.4963 -1.8172 3.6719 0
M  V30 10 C -0.9724 -1.7234 1.1424 0 CFG=2
M  V30 11 C 0.9978 -2.3539 -0.5505 0
M  V30 12 C -0.5286 -4.1638 0.3516 0
M  V30 13 N -0.8789 -0.3321 0.6411 0
M  V30 14 C -1.3966 0.0195 -0.5884 0
M  V30 15 O -1.965 -0.7467 -1.3525 0
M  V30 16 C -1.2197 1.4892 -0.9508 0
M  V30 17 N -2.078 2.3053 -0.4018 0
M  V30 18 C -0.1005 1.8416 -1.8211 0
M  V30 19 O -1.8299 3.6533 -0.6916 0
M  V30 20 N 1.0392 1.0341 -1.8238 0
M  V30 21 C -0.0286 2.9049 -2.703 0
M  V30 22 C -2.8256 4.4552 -0.0643 0
M  V30 23 C 1.9325 1.4925 -2.6634 0
M  V30 24 S 1.4777 2.9053 -3.5188 0
M  V30 25 C -2.6597 5.8921 -0.5049 0
M  V30 26 N 3.1204 0.9131 -2.854 0
M  V30 27 O -1.8611 6.3379 -1.3132 0
M  V30 28 O -3.5377 6.7199 0.1035 0
M  V30 29 H 3.4706 -5.5036 3.3372 0
M  V30 30 H -2.0142 -2.0667 1.1498 0
M  V30 31 H 0.4529 -2.2524 -1.4948 0
M  V30 32 H 1.7871 -3.0981 -0.7041 0
M  V30 33 H 1.4897 -1.398 -0.3403 0
M  V30 34 H -1.1356 -4.4933 1.2025 0
M  V30 35 H -1.174 -4.1672 -0.5334 0
M  V30 36 H 0.2582 -4.9096 0.1939 0
M  V30 37 H -0.4492 0.3981 1.2014 0
M  V30 38 H -0.7657 3.6663 -2.9153 0
M  V30 39 H -2.7013 4.3983 1.0216 0
M  V30 40 H -3.8213 4.1119 -0.3641 0
M  V30 41 H 3.8001 1.2818 -3.5049 0
M  V30 42 H 3.3691 0.0805 -2.3363 0
M  V30 43 H -3.3267 7.6035 -0.2666 0
M  V30 END ATOM
M  V30 BEGIN BOND
M  V30 1 2 1 2
M  V30 2 2 1 3
M  V30 3 1 1 4
M  V30 4 1 1 5
M  V30 5 1 4 6
M  V30 6 1 6 7
M  V30 7 1 6 8
M  V30 8 2 7 9
M  V30 9 1 7 10
M  V30 10 1 8 11
M  V30 11 1 8 12
M  V30 12 1 10 13
M  V30 13 1 13 14
M  V30 14 2 14 15
M  V30 15 1 14 16
M  V30 16 2 16 17
M  V30 17 1 16 18
M  V30 18 1 17 19
M  V30 19 1 18 20
M  V30 20 2 18 21
M  V30 21 1 19 22
M  V30 22 2 20 23
M  V30 23 1 21 24
M  V30 24 1 22 25
M  V30 25 1 23 26
M  V30 26 2 25 27
M  V30 27 1 25 28
M  V30 28 1 8 10
M  V30 29 1 23 24
M  V30 30 1 5 29
M  V30 31 1 10 30
M  V30 32 1 11 31
M  V30 33 1 11 32
M  V30 34 1 11 33
M  V30 35 1 12 34
M  V30 36 1 12 35
M  V30 37 1 12 36
M  V30 38 1 13 37
M  V30 39 1 21 38
M  V30 40 1 22 39
M  V30 41 1 22 40
M  V30 42 1 26 41
M  V30 43 1 26 42
M  V30 44 1 28 43
M  V30 END BOND
M  V30 BEGIN COLLECTION
M  V30 MDLV30/STEABS ATOMS=(1 10)
M  V30 END COLLECTION
M  V30 END CTAB
M  END
>  <level_0>
1369

>  <index>
1369

>  <NO.>
1370

>  <Name>
tigemonam

>  <SMILES>
CC1(C)[C@H](NC(=O)/C(=N/OCC(=O)O)c2csc(N)n2)C(=O)N1OS(=O)(=O)O

>  <logBB>


>  <Class>
-1

>  <MW>
437.03

>  <nHBAcc>
11

>  <nHBDon>
4

>  <SLogP>
-1.63

>  <TopoPSA>
210.81

>  <MMFF94 Energy>
31.558

$$$$
CC1=C(C(=O)O)N2C(=O)[C@@H](NC(=O)[C@H](N)c3cccc(NS(C)(=O)=O)c3)[C@H]2SC1
Actelion Java MolfileCreator 2.0

  0  0  0  0  0  0              0 V3000
M  V30 BEGIN CTAB
M  V30 COUNTS 49 51 0 0 0
M  V30 BEGIN ATOM
M  V30 1 S -3.3637 0.9836 1.3116 0
M  V30 2 O -2.8466 -0.0976 0.4976 0
M  V30 3 O -4.7945 1.163 1.4548 0
M  V30 4 N -2.795 0.8295 2.8705 0
M  V30 5 C -2.6819 2.5437 0.7775 0
M  V30 6 C -1.4274 0.7466 3.264 0
M  V30 7 C -0.3632 0.485 2.3977 0
M  V30 8 C -1.1684 0.8651 4.6338 0
M  V30 9 C 0.9636 0.4159 2.878 0
M  V30 10 C 0.133 0.7733 5.1276 0
M  V30 11 C 1.1945 0.555 4.2539 0
M  V30 12 C 2.1373 0.176 1.9428 0 CFG=1
M  V30 13 N 2.1285 -1.2267 1.4521 0
M  V30 14 C 2.1636 1.1665 0.7485 0
M  V30 15 O 1.8876 2.3599 0.8369 0
M  V30 16 N 2.5055 0.5753 -0.4514 0
M  V30 17 C 2.1056 1.1851 -1.7488 0 CFG=2
M  V30 18 C 0.5238 1.1516 -1.9332 0
M  V30 19 C 2.0798 0.2482 -3.0038 0 CFG=2
M  V30 20 O -0.4514 1.6952 -1.4743 0
M  V30 21 N 0.6755 0.0703 -2.7268 0
M  V30 22 S 2.9463 -1.338 -2.8764 0
M  V30 23 C -0.0941 -0.9949 -3.0617 0
M  V30 24 C 1.8698 -2.1503 -4.1085 0
M  V30 25 C 0.4084 -2.0565 -3.7282 0
M  V30 26 C -1.4561 -1.0311 -2.466 0
M  V30 27 C -0.3997 -3.2737 -4.0963 0
M  V30 28 O -2.5097 -0.8427 -3.0408 0
M  V30 29 O -1.3238 -1.2832 -1.1489 0
M  V30 30 H -3.4726 1.1391 3.5664 0
M  V30 31 H -3.0291 3.3272 1.4541 0
M  V30 32 H -1.5944 2.4927 0.7701 0
M  V30 33 H -3.0498 2.7388 -0.2321 0
M  V30 34 H -0.5365 0.3499 1.3334 0
M  V30 35 H -1.9793 1.0332 5.3382 0
M  V30 36 H 0.3179 0.8757 6.1941 0
M  V30 37 H 2.2046 0.4964 4.6548 0
M  V30 38 H 3.0832 0.3355 2.475 0
M  V30 39 H 2.1532 -1.8383 2.2696 0
M  V30 40 H 1.2144 -1.4068 1.0266 0
M  V30 41 H 2.7491 -0.415 -0.3906 0
M  V30 42 H 2.5696 2.1605 -1.9194 0
M  V30 43 H 2.2554 0.7771 -3.9486 0
M  V30 44 H 2.1873 -3.1975 -4.1481 0
M  V30 45 H 2.0332 -1.7152 -5.1001 0
M  V30 46 H -0.3215 -3.4602 -5.1727 0
M  V30 47 H -1.4633 -3.1804 -3.8627 0
M  V30 48 H -0.0207 -4.1528 -3.5647 0
M  V30 49 H -2.177 -1.0259 -0.71 0
M  V30 END ATOM
M  V30 BEGIN BOND
M  V30 1 2 1 2
M  V30 2 2 1 3
M  V30 3 1 1 4
M  V30 4 1 1 5
M  V30 5 1 4 6
M  V30 6 2 6 7
M  V30 7 1 6 8
M  V30 8 1 7 9
M  V30 9 2 8 10
M  V30 10 2 9 11
M  V30 11 1 9 12
M  V30 12 1 12 13
M  V30 13 1 12 14
M  V30 14 2 14 15
M  V30 15 1 14 16
M  V30 16 1 16 17
M  V30 17 1 17 18
M  V30 18 1 17 19
M  V30 19 2 18 20
M  V30 20 1 18 21
M  V30 21 1 19 22
M  V30 22 1 21 23
M  V30 23 1 22 24
M  V30 24 2 23 25
M  V30 25 1 23 26
M  V30 26 1 25 27
M  V30 27 2 26 28
M  V30 28 1 26 29
M  V30 29 1 10 11
M  V30 30 1 19 21
M  V30 31 1 24 25
M  V30 32 1 4 30
M  V30 33 1 5 31
M  V30 34 1 5 32
M  V30 35 1 5 33
M  V30 36 1 7 34
M  V30 37 1 8 35
M  V30 38 1 10 36
M  V30 39 1 11 37
M  V30 40 1 12 38
M  V30 41 1 13 39
M  V30 42 1 13 40
M  V30 43 1 16 41
M  V30 44 1 17 42
M  V30 45 1 19 43
M  V30 46 1 24 44
M  V30 47 1 24 45
M  V30 48 1 27 46
M  V30 49 1 27 47
M  V30 50 1 27 48
M  V30 51 1 29 49
M  V30 END BOND
M  V30 BEGIN COLLECTION
M  V30 MDLV30/STEABS ATOMS=(3 12 17 19)
M  V30 END COLLECTION
M  V30 END CTAB
M  END
>  <level_0>
1383

>  <index>
1383

>  <NO.>
1384

>  <Name>
cefsumide

>  <SMILES>
CC1=C(C(=O)O)N2C(=O)[C@@H](NC(=O)[C@H](N)c3cccc(NS(C)(=O)=O)c3)[C@H]2SC1

>  <logBB>


>  <Class>
-1

>  <MW>
440.08

>  <nHBAcc>
7

>  <nHBDon>
4

>  <SLogP>
-0.18

>  <TopoPSA>
158.9

>  <MMFF94 Energy>
4.2803

$$$$
CC1NC(=O)C(NC(=O)c2ncccc2O)C(C)OC(=O)C(c2ccccc2)NC(=O)C2CC(=O)CCN2C(=O)C(Cc2ccc(N(C)C)cc2)N(C)C(=O)C2CCCN2C1=O
Actelion Java MolfileCreator 2.0

  0  0  0  0  0  0              0 V3000
M  V30 BEGIN CTAB
M  V30 COUNTS 114 119 0 0 0
M  V30 BEGIN ATOM
M  V30 1 O 2.7173 -0.2395 1.5977 0
M  V30 2 C 2.074 0.7285 1.9944 0
M  V30 3 O 2.0482 1.9567 1.4009 0
M  V30 4 C 1.2233 0.7307 3.2777 0
M  V30 5 C 2.8271 2.1291 0.1886 0
M  V30 6 N 0.5081 -0.5372 3.3877 0
M  V30 7 C 2.042 0.9659 4.5343 0
M  V30 8 C 2.0232 3.063 -0.7491 0
M  V30 9 C 4.1647 2.7238 0.6332 0
M  V30 10 C -0.8542 -0.582 3.516 0
M  V30 11 C 1.5565 1.842 5.5192 0
M  V30 12 C 3.2518 0.2935 4.7724 0
M  V30 13 N 2.8473 3.8917 -1.6273 0
M  V30 14 C 1.1031 2.256 -1.6892 0
M  V30 15 O -1.5354 0.4139 3.7573 0
M  V30 16 C -1.5019 -1.9742 3.4072 0
M  V30 17 C 2.2747 2.0612 6.6958 0
M  V30 18 C 3.969 0.5156 5.9498 0
M  V30 19 C 2.4121 5.1049 -2.1293 0
M  V30 20 O 1.3368 1.1043 -2.0468 0
M  V30 21 N 0.0381 2.9892 -2.1896 0
M  V30 22 N -0.5868 -3.065 2.9944 0
M  V30 23 C -2.1749 -2.2444 4.7606 0
M  V30 24 C 3.4822 1.4008 6.9091 0
M  V30 25 O 1.3055 5.5557 -1.8539 0
M  V30 26 C 3.4008 5.7625 -3.0599 0
M  V30 27 C -0.9111 2.3904 -3.1159 0
M  V30 28 C -0.1915 -3.364 1.6824 0
M  V30 29 C -0.2458 -4.0243 4.0479 0
M  V30 30 C -2.5508 -3.6983 4.8812 0
M  V30 31 N 4.5538 5.0438 -3.2473 0
M  V30 32 C 3.1565 6.9885 -3.6785 0
M  V30 33 C -1.8302 1.3599 -2.4226 0
M  V30 34 C -1.7212 3.4409 -3.8619 0
M  V30 35 O 0.4218 -4.4165 1.4734 0
M  V30 36 C -0.3134 -2.2907 0.5555 0
M  V30 37 C -1.5019 -4.7253 4.532 0
M  V30 38 O -3.6588 -4.0384 5.2961 0
M  V30 39 C 5.476 5.5762 -4.0757 0
M  V30 40 O 2.0044 7.6904 -3.4852 0
M  V30 41 C 4.1364 7.5029 -4.5256 0
M  V30 42 O -2.1806 0.3401 -3.0283 0
M  V30 43 N -2.3342 1.6227 -1.1679 0
M  V30 44 N -1.6065 -1.5927 0.3615 0
M  V30 45 C 0.3559 -2.7197 -0.7819 0
M  V30 46 C 5.3145 6.7871 -4.7284 0
M  V30 47 C -2.827 0.5222 -0.3406 0
M  V30 48 C -2.3597 2.8654 -0.4242 0
M  V30 49 C -1.5728 -0.2087 0.2101 0
M  V30 50 C -2.7953 -2.3892 0.0849 0
M  V30 51 C -0.4531 -3.581 -1.7228 0
M  V30 52 C -3.5813 1.1971 0.8094 0
M  V30 53 C -3.5685 2.6898 0.4784 0
M  V30 54 O -0.5743 0.4383 0.5503 0
M  V30 55 C -0.6387 -4.9438 -1.4996 0
M  V30 56 C -1.0326 -3.0221 -2.8632 0
M  V30 57 C -1.4115 -5.7165 -2.3806 0
M  V30 58 C -1.8051 -3.8032 -3.7351 0
M  V30 59 C -2.0245 -5.1735 -3.522 0
M  V30 60 N -2.798 -5.943 -4.3847 0
M  V30 61 C -3.4044 -5.3556 -5.5719 0
M  V30 62 C -2.9696 -7.3728 -4.1688 0
M  V30 63 H 0.4888 1.5377 3.1611 0
M  V30 64 H 3.0178 1.1632 -0.292 0
M  V30 65 H 1.0312 -1.3872 3.2153 0
M  V30 66 H 1.3856 3.723 -0.1463 0
M  V30 67 H 4.8631 2.8255 -0.2021 0
M  V30 68 H 4.6361 2.0863 1.3895 0
M  V30 69 H 4.0211 3.7054 1.0986 0
M  V30 70 H 0.6067 2.3557 5.3761 0
M  V30 71 H 3.6507 -0.4117 4.0454 0
M  V30 72 H 3.7158 3.533 -2.0189 0
M  V30 73 H -2.2925 -1.9096 2.6596 0
M  V30 74 H 1.8884 2.745 7.4475 0
M  V30 75 H 4.9079 -0.0055 6.119 0
M  V30 76 H 0.031 3.9948 -2.0172 0
M  V30 77 H -3.0753 -1.6278 4.866 0
M  V30 78 H -1.5153 -1.9981 5.6019 0
M  V30 79 H 4.0412 1.5717 7.8254 0
M  V30 80 H -0.3215 1.8275 -3.8513 0
M  V30 81 H 0.4832 -4.7667 3.7097 0
M  V30 82 H 0.2352 -3.465 4.8598 0
M  V30 83 H -2.3029 4.0761 -3.1889 0
M  V30 84 H -1.0602 4.0974 -4.4381 0
M  V30 85 H -2.4236 2.9687 -4.5569 0
M  V30 86 H 0.3904 -1.5387 0.9287 0
M  V30 87 H -1.9091 -5.3665 3.7429 0
M  V30 88 H -1.2828 -5.33 5.4168 0
M  V30 89 H 6.3794 4.9862 -4.208 0
M  V30 90 H 2.0252 8.5187 -3.9905 0
M  V30 91 H 4.0002 8.4527 -5.0342 0
M  V30 92 H 1.3061 -3.2322 -0.5818 0
M  V30 93 H 0.6412 -1.8051 -1.3212 0
M  V30 94 H 6.0912 7.1664 -5.3845 0
M  V30 95 H -3.4617 -0.133 -0.9402 0
M  V30 96 H -1.4393 2.9441 0.1635 0
M  V30 97 H -2.4486 3.7377 -1.0713 0
M  V30 98 H -2.6846 -3.3993 0.4863 0
M  V30 99 H -2.9769 -2.4236 -0.9903 0
M  V30 100 H -3.6616 -1.919 0.56 0
M  V30 101 H -4.6077 0.8233 0.8873 0
M  V30 102 H -3.102 1.0201 1.7766 0
M  V30 103 H -3.5247 3.3211 1.3704 0
M  V30 104 H -4.4825 2.9452 -0.0717 0
M  V30 105 H -0.1789 -5.4352 -0.646 0
M  V30 106 H -0.904 -1.9631 -3.0845 0
M  V30 107 H -1.5143 -6.771 -2.1429 0
M  V30 108 H -2.2324 -3.2934 -4.5934 0
M  V30 109 H -4.0883 -4.5435 -5.3011 0
M  V30 110 H -3.9942 -6.0874 -6.1345 0
M  V30 111 H -2.6366 -4.9733 -6.2535 0
M  V30 112 H -2.0053 -7.8914 -4.2054 0
M  V30 113 H -3.6055 -7.8291 -4.9351 0
M  V30 114 H -3.451 -7.5674 -3.2041 0
M  V30 END ATOM
M  V30 BEGIN BOND
M  V30 1 2 1 2
M  V30 2 1 2 3
M  V30 3 1 2 4
M  V30 4 1 3 5
M  V30 5 1 4 6
M  V30 6 1 4 7
M  V30 7 1 5 8
M  V30 8 1 5 9
M  V30 9 1 6 10
M  V30 10 2 7 11
M  V30 11 1 7 12
M  V30 12 1 8 13
M  V30 13 1 8 14
M  V30 14 2 10 15
M  V30 15 1 10 16
M  V30 16 1 11 17
M  V30 17 2 12 18
M  V30 18 1 13 19
M  V30 19 2 14 20
M  V30 20 1 14 21
M  V30 21 1 16 22
M  V30 22 1 16 23
M  V30 23 2 17 24
M  V30 24 2 19 25
M  V30 25 1 19 26
M  V30 26 1 21 27
M  V30 27 1 22 28
M  V30 28 1 22 29
M  V30 29 1 23 30
M  V30 30 2 26 31
M  V30 31 1 26 32
M  V30 32 1 27 33
M  V30 33 1 27 34
M  V30 34 2 28 35
M  V30 35 1 28 36
M  V30 36 1 29 37
M  V30 37 2 30 38
M  V30 38 1 31 39
M  V30 39 1 32 40
M  V30 40 2 32 41
M  V30 41 2 33 42
M  V30 42 1 33 43
M  V30 43 1 36 44
M  V30 44 1 36 45
M  V30 45 2 39 46
M  V30 46 1 43 47
M  V30 47 1 43 48
M  V30 48 1 44 49
M  V30 49 1 44 50
M  V30 50 1 45 51
M  V30 51 1 47 52
M  V30 52 1 48 53
M  V30 53 2 49 54
M  V30 54 2 51 55
M  V30 55 1 51 56
M  V30 56 1 55 57
M  V30 57 2 56 58
M  V30 58 2 57 59
M  V30 59 1 59 60
M  V30 60 1 60 61
M  V30 61 1 60 62
M  V30 62 1 18 24
M  V30 63 1 30 37
M  V30 64 1 41 46
M  V30 65 1 47 49
M  V30 66 1 52 53
M  V30 67 1 58 59
M  V30 68 1 4 63
M  V30 69 1 5 64
M  V30 70 1 6 65
M  V30 71 1 8 66
M  V30 72 1 9 67
M  V30 73 1 9 68
M  V30 74 1 9 69
M  V30 75 1 11 70
M  V30 76 1 12 71
M  V30 77 1 13 72
M  V30 78 1 16 73
M  V30 79 1 17 74
M  V30 80 1 18 75
M  V30 81 1 21 76
M  V30 82 1 23 77
M  V30 83 1 23 78
M  V30 84 1 24 79
M  V30 85 1 27 80
M  V30 86 1 29 81
M  V30 87 1 29 82
M  V30 88 1 34 83
M  V30 89 1 34 84
M  V30 90 1 34 85
M  V30 91 1 36 86
M  V30 92 1 37 87
M  V30 93 1 37 88
M  V30 94 1 39 89
M  V30 95 1 40 90
M  V30 96 1 41 91
M  V30 97 1 45 92
M  V30 98 1 45 93
M  V30 99 1 46 94
M  V30 100 1 47 95
M  V30 101 1 48 96
M  V30 102 1 48 97
M  V30 103 1 50 98
M  V30 104 1 50 99
M  V30 105 1 50 100
M  V30 106 1 52 101
M  V30 107 1 52 102
M  V30 108 1 53 103
M  V30 109 1 53 104
M  V30 110 1 55 105
M  V30 111 1 56 106
M  V30 112 1 57 107
M  V30 113 1 58 108
M  V30 114 1 61 109
M  V30 115 1 61 110
M  V30 116 1 61 111
M  V30 117 1 62 112
M  V30 118 1 62 113
M  V30 119 1 62 114
M  V30 END BOND
M  V30 END CTAB
M  END
>  <level_0>
1402

>  <index>
1402

>  <NO.>
1403

>  <Name>
pristinamycin-ic

>  <SMILES>
CC1NC(=O)C(NC(=O)c2ncccc2O)C(C)OC(=O)C(c2ccccc2)NC(=O)C2CC(=O)CCN2C(=O)C(Cc2ccc(N(C)C)cc2)N(C)C(=O)C2CCCN2C1=O

>  <logBB>


>  <Class>
-1

>  <MW>
852.38

>  <nHBAcc>
12

>  <nHBDon>
4

>  <SLogP>
0.88

>  <TopoPSA>
227.96

>  <MMFF94 Energy>
231.79

$$$$
CC1OC(OC2CC(O)(C(=O)CO)Cc3c(O)c4c(c(O)c32)C(=O)c2ccccc2C4=O)CC(N)C1O
Actelion Java MolfileCreator 2.0

  0  0  0  0  0  0              0 V3000
M  V30 BEGIN CTAB
M  V30 COUNTS 64 68 0 0 0
M  V30 BEGIN ATOM
M  V30 1 O 0.6461 -3.4769 1.7777 0
M  V30 2 C 1.7059 -2.9045 1.555 0
M  V30 3 C 1.7814 -1.5546 0.9227 0
M  V30 4 C 2.953 -3.5967 1.9413 0
M  V30 5 C 0.6287 -0.8493 0.5268 0
M  V30 6 C 3.0265 -0.9576 0.7287 0
M  V30 7 C 4.1884 -2.9942 1.7389 0
M  V30 8 C 2.892 -4.8725 2.5206 0
M  V30 9 O -0.6013 -1.4155 0.7284 0
M  V30 10 C 0.6882 0.435 -0.0686 0
M  V30 11 C 4.263 -1.6575 1.134 0
M  V30 12 C 3.1059 0.3197 0.1455 0
M  V30 13 C 5.3661 -3.6571 2.1109 0
M  V30 14 C 4.0641 -5.5343 2.8912 0
M  V30 15 C 1.9562 1.0168 -0.2671 0
M  V30 16 C -0.5795 1.1294 -0.5838 0
M  V30 17 O 5.3517 -1.1156 0.9594 0
M  V30 18 O 4.3092 0.9527 -0.0583 0
M  V30 19 C 5.3011 -4.9264 2.6864 0
M  V30 20 C 2.1191 2.4015 -0.8618 0
M  V30 21 O -1.6488 0.8697 0.3464 0
M  V30 22 C -0.3709 2.6314 -0.8001 0
M  V30 23 C 0.8877 2.9058 -1.6203 0
M  V30 24 C -2.9411 1.385 0.0077 0
M  V30 25 O 0.7417 2.2364 -2.8766 0
M  V30 26 C 1.0457 4.4224 -1.8442 0
M  V30 27 O -3.8402 1.1502 1.0943 0
M  V30 28 C -3.5277 0.8231 -1.2887 0
M  V30 29 O 0.5906 5.2618 -1.0609 0
M  V30 30 C 1.8227 4.87 -3.0769 0
M  V30 31 C -4.1474 -0.2312 1.3243 0
M  V30 32 C -3.8128 -0.6735 -1.1433 0
M  V30 33 O 2.1865 6.2401 -3.0002 0
M  V30 34 C -4.7307 -0.9198 0.0727 0
M  V30 35 C -5.11 -0.2847 2.5065 0
M  V30 36 N -4.3886 -1.181 -2.401 0
M  V30 37 O -6.0448 -0.4184 -0.2126 0
M  V30 38 H 1.9298 -5.3555 2.6859 0
M  V30 39 H -1.2286 -0.6748 0.8536 0
M  V30 40 H 6.3364 -3.1889 1.9551 0
M  V30 41 H 4.0095 -6.5235 3.3404 0
M  V30 42 H -0.8173 0.6393 -1.5351 0
M  V30 43 H 5.0318 0.3732 0.2786 0
M  V30 44 H 6.2151 -5.4405 2.9754 0
M  V30 45 H 2.9743 2.3969 -1.5496 0
M  V30 46 H 2.3613 3.0866 -0.0381 0
M  V30 47 H -0.3332 3.1462 0.1697 0
M  V30 48 H -1.2371 3.0459 -1.3306 0
M  V30 49 H -2.8759 2.4738 -0.0693 0
M  V30 50 H 1.6185 1.9657 -3.2055 0
M  V30 51 H -2.8579 0.9999 -2.1365 0
M  V30 52 H -4.4643 1.3539 -1.5063 0
M  V30 53 H 2.7405 4.2846 -3.1687 0
M  V30 54 H 1.199 4.7238 -3.9627 0
M  V30 55 H -3.2263 -0.7437 1.6215 0
M  V30 56 H -2.8668 -1.2027 -0.9811 0
M  V30 57 H 1.5045 6.676 -2.4498 0
M  V30 58 H -4.8324 -1.9951 0.2633 0
M  V30 59 H -6.0139 0.3032 2.314 0
M  V30 60 H -4.6411 0.1524 3.3951 0
M  V30 61 H -5.3988 -1.3143 2.7382 0
M  V30 62 H -4.6709 -2.1539 -2.2926 0
M  V30 63 H -5.221 -0.6439 -2.6422 0
M  V30 64 H -6.4172 -0.9863 -0.907 0
M  V30 END ATOM
M  V30 BEGIN BOND
M  V30 1 2 1 2
M  V30 2 1 2 3
M  V30 3 1 2 4
M  V30 4 2 3 5
M  V30 5 1 3 6
M  V30 6 2 4 7
M  V30 7 1 4 8
M  V30 8 1 5 9
M  V30 9 1 5 10
M  V30 10 1 6 11
M  V30 11 2 6 12
M  V30 12 1 7 13
M  V30 13 2 8 14
M  V30 14 2 10 15
M  V30 15 1 10 16
M  V30 16 2 11 17
M  V30 17 1 12 18
M  V30 18 2 13 19
M  V30 19 1 15 20
M  V30 20 1 16 21
M  V30 21 1 16 22
M  V30 22 1 20 23
M  V30 23 1 21 24
M  V30 24 1 23 25
M  V30 25 1 23 26
M  V30 26 1 24 27
M  V30 27 1 24 28
M  V30 28 2 26 29
M  V30 29 1 26 30
M  V30 30 1 27 31
M  V30 31 1 28 32
M  V30 32 1 30 33
M  V30 33 1 31 34
M  V30 34 1 31 35
M  V30 35 1 32 36
M  V30 36 1 34 37
M  V30 37 1 7 11
M  V30 38 1 12 15
M  V30 39 1 14 19
M  V30 40 1 22 23
M  V30 41 1 32 34
M  V30 42 1 8 38
M  V30 43 1 9 39
M  V30 44 1 13 40
M  V30 45 1 14 41
M  V30 46 1 16 42
M  V30 47 1 18 43
M  V30 48 1 19 44
M  V30 49 1 20 45
M  V30 50 1 20 46
M  V30 51 1 22 47
M  V30 52 1 22 48
M  V30 53 1 24 49
M  V30 54 1 25 50
M  V30 55 1 28 51
M  V30 56 1 28 52
M  V30 57 1 30 53
M  V30 58 1 30 54
M  V30 59 1 31 55
M  V30 60 1 32 56
M  V30 61 1 33 57
M  V30 62 1 34 58
M  V30 63 1 35 59
M  V30 64 1 35 60
M  V30 65 1 35 61
M  V30 66 1 36 62
M  V30 67 1 36 63
M  V30 68 1 37 64
M  V30 END BOND
M  V30 END CTAB
M  END
>  <level_0>
1406

>  <index>
1406

>  <NO.>
1407

>  <Name>
4-demethoxyadriamycin hcl

>  <SMILES>
CC1OC(OC2CC(O)(C(=O)CO)Cc3c(O)c4c(c(O)c32)C(=O)c2ccccc2C4=O)CC(N)C1O

>  <logBB>


>  <Class>
-1

>  <MW>
513.16

>  <nHBAcc>
11

>  <nHBDon>
6

>  <SLogP>
-0.01

>  <TopoPSA>
196.84

>  <MMFF94 Energy>
145.68

$$$$
CCC(=O)OC1CC(=O)OC(C)C/C=C/C=C\C(O)C(C)CC(CC=O)C(O[C@@H]2O[C@H](C)[C@@H](O[C@H]3C[C@@](C)(O)[C@H](OC(=O)CC)[C@@H](C)O3)[C@H](N(C)C)[C@H]2O)C1OC
Actelion Java MolfileCreator 2.0

  0  0  0  0  0  0              0 V3000
M  V30 BEGIN CTAB
M  V30 COUNTS 124 126 0 0 0
M  V30 BEGIN ATOM
M  V30 1 O -5.2349 -3.8845 -2.6148 0
M  V30 2 C -4.4384 -3.3384 -1.8605 0
M  V30 3 O -3.331 -3.923 -1.3435 0
M  V30 4 C -4.6021 -1.9003 -1.4399 0
M  V30 5 C -2.956 -5.2608 -1.7606 0
M  V30 6 C -3.5165 -1.3379 -0.5156 0
M  V30 7 C -4.015 -6.3378 -1.4448 0
M  V30 8 C -2.546 -5.2694 -3.233 0
M  V30 9 O -3.6453 0.1107 -0.5491 0
M  V30 10 C -3.653 -1.8066 0.9686 0
M  V30 11 C -4.4653 -6.4489 -0.009 0
M  V30 12 C -3.0186 0.7736 -1.5527 0
M  V30 13 O -4.8354 -1.1937 1.5253 0
M  V30 14 C -2.3791 -1.4506 1.8387 0
M  V30 15 C -3.7176 -6.2059 1.0779 0
M  V30 16 O -2.4426 0.2451 -2.4938 0
M  V30 17 C -3.1484 2.261 -1.3361 0
M  V30 18 C -5.8897 -2.104 1.8066 0
M  V30 19 O -1.9231 -0.1218 1.542 0
M  V30 20 C -2.6408 -1.6236 3.3787 0
M  V30 21 C -4.2425 -6.3132 2.4183 0
M  V30 22 C -2.0898 3.0328 -2.1043 0
M  V30 23 C -0.4981 0.0373 1.4395 0 CFG=2
M  V30 24 C -2.7804 -3.1137 3.8152 0
M  V30 25 C -1.6796 -0.8336 4.2936 0
M  V30 26 C -3.5764 -6.0531 3.5551 0
M  V30 27 O -0.246 1.4254 1.6686 0
M  V30 28 C 0.0506 -0.3767 0.0579 0 CFG=2
M  V30 29 C -1.8115 -4.1726 3.2318 0
M  V30 30 C -2.1581 -0.6644 5.7222 0
M  V30 31 C -2.1458 -5.6145 3.7189 0
M  V30 32 C 1.141 1.7542 1.6573 0 CFG=1
M  V30 33 O -0.0485 -1.7968 -0.1593 0
M  V30 34 C 1.542 0.0239 -0.1082 0 CFG=2
M  V30 35 C -0.3429 -3.8603 3.5389 0
M  V30 36 O -3.1815 -1.15 6.1917 0
M  V30 37 O -1.8081 -5.7614 5.0992 0
M  V30 38 C 1.749 1.5273 0.2501 0 CFG=2
M  V30 39 C 1.2442 3.1979 2.1377 0
M  V30 40 N 2.0232 -0.5018 -1.4276 0
M  V30 41 O 3.1505 1.8255 0.2978 0
M  V30 42 C 3.4841 -0.5692 -1.503 0
M  V30 43 C 1.4967 0.215 -2.5912 0
M  V30 44 C 3.5034 3.0728 -0.3042 0 CFG=2
M  V30 45 O 3.3122 3.0176 -1.7124 0
M  V30 46 C 4.9747 3.3201 0.0117 0
M  V30 47 C 3.6724 4.2284 -2.3849 0 CFG=1
M  V30 48 C 5.4932 4.5945 -0.6584 0 CFG=2
M  V30 49 C 5.1648 4.5495 -2.1728 0 CFG=2
M  V30 50 C 3.3222 4.0355 -3.8569 0
M  V30 51 O 6.9201 4.6215 -0.4847 0
M  V30 52 C 4.9568 5.8518 0.0434 0
M  V30 53 O 5.5052 5.8305 -2.7506 0
M  V30 54 C 6.1462 5.8167 -3.9514 0
M  V30 55 O 6.434 4.8163 -4.5903 0
M  V30 56 C 6.4564 7.2222 -4.3942 0
M  V30 57 C 7.5711 7.8239 -3.5614 0
M  V30 58 H -4.6143 -1.3209 -2.3717 0
M  V30 59 H -5.5939 -1.7741 -0.9967 0
M  V30 60 H -2.0493 -5.4894 -1.1877 0
M  V30 61 H -2.5261 -1.6244 -0.8843 0
M  V30 62 H -4.9125 -6.1628 -2.0478 0
M  V30 63 H -3.6395 -7.3209 -1.7562 0
M  V30 64 H -3.3992 -5.0954 -3.8956 0
M  V30 65 H -2.097 -6.2293 -3.5068 0
M  V30 66 H -1.8198 -4.474 -3.4317 0
M  V30 67 H -3.7614 -2.8973 1.0028 0
M  V30 68 H -5.5018 -6.7616 0.1138 0
M  V30 69 H -1.5995 -2.1462 1.5309 0
M  V30 70 H -2.6756 -5.9272 0.9628 0
M  V30 71 H -3.0297 2.4738 -0.2678 0
M  V30 72 H -4.1496 2.5714 -1.6509 0
M  V30 73 H -6.7775 -1.5245 2.0739 0
M  V30 74 H -6.1281 -2.7262 0.9404 0
M  V30 75 H -5.6319 -2.7405 2.6545 0
M  V30 76 H -3.6166 -1.1621 3.5839 0
M  V30 77 H -5.2811 -6.6327 2.5076 0
M  V30 78 H -2.1804 4.1052 -1.906 0
M  V30 79 H -2.1922 2.8752 -3.1831 0
M  V30 80 H -1.0832 2.7132 -1.814 0
M  V30 81 H -0.0086 -0.5457 2.227 0
M  V30 82 H -2.7479 -3.1794 4.907 0
M  V30 83 H -3.7962 -3.4182 3.5468 0
M  V30 84 H -1.5698 0.194 3.9326 0
M  V30 85 H -0.6863 -1.2841 4.3336 0
M  V30 86 H -4.1323 -6.1944 4.4814 0
M  V30 87 H -0.5551 0.1125 -0.7057 0
M  V30 88 H -1.9243 -4.1725 2.1433 0
M  V30 89 H -1.4959 -0.0503 6.3574 0
M  V30 90 H -1.5042 -6.325 3.1835 0
M  V30 91 H 1.6638 1.1333 2.3975 0
M  V30 92 H 0.5465 -1.9548 -0.9248 0
M  V30 93 H 2.0946 -0.5641 0.6406 0
M  V30 94 H 0.3049 -4.6811 3.212 0
M  V30 95 H -0.0056 -2.9657 3.0093 0
M  V30 96 H -0.1791 -3.7073 4.6106 0
M  V30 97 H -2.3748 -5.1609 5.6122 0
M  V30 98 H 1.2221 2.1474 -0.4864 0
M  V30 99 H 0.7798 3.8838 1.4208 0
M  V30 100 H 0.7054 3.3236 3.0838 0
M  V30 101 H 2.2829 3.498 2.3007 0
M  V30 102 H 3.958 0.4115 -1.5889 0
M  V30 103 H 3.901 -1.0852 -0.6313 0
M  V30 104 H 3.784 -1.157 -2.3783 0
M  V30 105 H 1.7862 1.2673 -2.6113 0
M  V30 106 H 0.406 0.1589 -2.6381 0
M  V30 107 H 1.8571 -0.2489 -3.5168 0
M  V30 108 H 2.8797 3.87 0.1113 0
M  V30 109 H 5.1376 3.348 1.0969 0
M  V30 110 H 5.5699 2.4639 -0.3367 0
M  V30 111 H 3.0436 5.0452 -2.0094 0
M  V30 112 H 5.7805 3.752 -2.6108 0
M  V30 113 H 3.9193 3.2307 -4.2992 0
M  V30 114 H 3.4765 4.951 -4.4345 0
M  V30 115 H 2.2724 3.7388 -3.9616 0
M  V30 116 H 7.2684 5.3587 -1.0175 0
M  V30 117 H 5.2057 5.8295 1.1111 0
M  V30 118 H 3.8731 5.9607 -0.0493 0
M  V30 119 H 5.427 6.7586 -0.3538 0
M  V30 120 H 5.5441 7.8253 -4.333 0
M  V30 121 H 6.7491 7.1923 -5.4496 0
M  V30 122 H 7.8168 8.8279 -3.9205 0
M  V30 123 H 8.4752 7.2082 -3.6136 0
M  V30 124 H 7.2819 7.8997 -2.5078 0
M  V30 END ATOM
M  V30 BEGIN BOND
M  V30 1 2 1 2
M  V30 2 1 2 3
M  V30 3 1 2 4
M  V30 4 1 3 5
M  V30 5 1 4 6
M  V30 6 1 5 7
M  V30 7 1 5 8
M  V30 8 1 6 9
M  V30 9 1 6 10
M  V30 10 1 7 11
M  V30 11 1 9 12
M  V30 12 1 10 13
M  V30 13 1 10 14
M  V30 14 2 11 15
M  V30 15 2 12 16
M  V30 16 1 12 17
M  V30 17 1 13 18
M  V30 18 1 14 19
M  V30 19 1 14 20
M  V30 20 1 15 21
M  V30 21 1 17 22
M  V30 22 1 19 23
M  V30 23 1 20 24
M  V30 24 1 20 25
M  V30 25 2 21 26
M  V30 26 1 23 27
M  V30 27 1 23 28
M  V30 28 1 24 29
M  V30 29 1 25 30
M  V30 30 1 26 31
M  V30 31 1 27 32
M  V30 32 1 28 33
M  V30 33 1 28 34
M  V30 34 1 29 35
M  V30 35 2 30 36
M  V30 36 1 31 37
M  V30 37 1 32 38
M  V30 38 1 32 39
M  V30 39 1 34 40
M  V30 40 1 38 41
M  V30 41 1 40 42
M  V30 42 1 40 43
M  V30 43 1 41 44
M  V30 44 1 44 45
M  V30 45 1 44 46
M  V30 46 1 45 47
M  V30 47 1 46 48
M  V30 48 1 47 49
M  V30 49 1 47 50
M  V30 50 1 48 51
M  V30 51 1 48 52
M  V30 52 1 49 53
M  V30 53 1 53 54
M  V30 54 2 54 55
M  V30 55 1 54 56
M  V30 56 1 56 57
M  V30 57 1 29 31
M  V30 58 1 34 38
M  V30 59 1 48 49
M  V30 60 1 4 58
M  V30 61 1 4 59
M  V30 62 1 5 60
M  V30 63 1 6 61
M  V30 64 1 7 62
M  V30 65 1 7 63
M  V30 66 1 8 64
M  V30 67 1 8 65
M  V30 68 1 8 66
M  V30 69 1 10 67
M  V30 70 1 11 68
M  V30 71 1 14 69
M  V30 72 1 15 70
M  V30 73 1 17 71
M  V30 74 1 17 72
M  V30 75 1 18 73
M  V30 76 1 18 74
M  V30 77 1 18 75
M  V30 78 1 20 76
M  V30 79 1 21 77
M  V30 80 1 22 78
M  V30 81 1 22 79
M  V30 82 1 22 80
M  V30 83 1 23 81
M  V30 84 1 24 82
M  V30 85 1 24 83
M  V30 86 1 25 84
M  V30 87 1 25 85
M  V30 88 1 26 86
M  V30 89 1 28 87
M  V30 90 1 29 88
M  V30 91 1 30 89
M  V30 92 1 31 90
M  V30 93 1 32 91
M  V30 94 1 33 92
M  V30 95 1 34 93
M  V30 96 1 35 94
M  V30 97 1 35 95
M  V30 98 1 35 96
M  V30 99 1 37 97
M  V30 100 1 38 98
M  V30 101 1 39 99
M  V30 102 1 39 100
M  V30 103 1 39 101
M  V30 104 1 42 102
M  V30 105 1 42 103
M  V30 106 1 42 104
M  V30 107 1 43 105
M  V30 108 1 43 106
M  V30 109 1 43 107
M  V30 110 1 44 108
M  V30 111 1 46 109
M  V30 112 1 46 110
M  V30 113 1 47 111
M  V30 114 1 49 112
M  V30 115 1 50 113
M  V30 116 1 50 114
M  V30 117 1 50 115
M  V30 118 1 51 116
M  V30 119 1 52 117
M  V30 120 1 52 118
M  V30 121 1 52 119
M  V30 122 1 56 120
M  V30 123 1 56 121
M  V30 124 1 57 122
M  V30 125 1 57 123
M  V30 126 1 57 124
M  V30 END BOND
M  V30 BEGIN COLLECTION
M  V30 MDLV30/STEABS ATOMS=(9 23 28 32 34 38 44 47 48 49)
M  V30 END COLLECTION
M  V30 END CTAB
M  END
>  <level_0>
1426

>  <index>
1426

>  <NO.>
1427

>  <Name>
midecamycin

>  <SMILES>
CCC(=O)OC1CC(=O)OC(C)C/C=C/C=C\C(O)C(C)CC(CC=O)C(O[C@@H]2O[C@H](C)[C@@H](O[C@H]3C[C@@](C)(O)[C@H](OC(=O)CC)[C@@H](C)O3)[C@H](N(C)C)[C@H]2O)C1OC

>  <logBB>


>  <Class>
-1

>  <MW>
813.45

>  <nHBAcc>
16

>  <nHBDon>
3

>  <SLogP>
2.77

>  <TopoPSA>
206.05

>  <MMFF94 Energy>
164.77

$$$$
CCC(=O)O[C@H]1[C@H](C)O[C@@H](O[C@@H]2C(C)C(=O)O[C@H](C)[C@H](C)[C@H](OC(=O)CC)[C@@H](C)C(=O)[C@]3(CO3)CC(C)[C@H](O[C@@H]3O[C@H](C)C[C@H](N(C)C)[C@H]3O)[C@H]2C)C[C@@H]1OC
Actelion Java MolfileCreator 2.0

  0  0  0  0  0  0              0 V3000
M  V30 BEGIN CTAB
M  V30 COUNTS 125 128 0 0 0
M  V30 BEGIN ATOM
M  V30 1 O 4.37 -2.5408 2.3023 0
M  V30 2 C 3.8322 -1.7975 1.493 0
M  V30 3 O 3.8985 -0.4375 1.5392 0
M  V30 4 C 3.0692 -2.2615 0.2625 0
M  V30 5 C 4.7965 0.1365 2.514 0 CFG=1
M  V30 6 C 1.7027 -1.5513 0.0888 0 CFG=1
M  V30 7 C 2.9991 -3.7904 0.2361 0
M  V30 8 C 5.3014 1.5039 1.969 0 CFG=1
M  V30 9 C 4.1404 0.1641 3.8956 0
M  V30 10 O 1.109 -2.0214 -1.1311 0
M  V30 11 C 0.6664 -1.785 1.241 0 CFG=1
M  V30 12 C 4.3101 2.2695 1.0359 0 CFG=2
M  V30 13 C 5.9409 2.3774 3.051 0
M  V30 14 C 1.3566 -1.2215 -2.2817 0 CFG=2
M  V30 15 C -0.2082 -0.4741 1.4316 0 CFG=1
M  V30 16 C -0.2007 -3.0346 1.0221 0
M  V30 17 O 5.0219 3.3599 0.3971 0
M  V30 18 C 3.0376 2.8473 1.7044 0 CFG=2
M  V30 19 O 0.4017 -0.1762 -2.4054 0
M  V30 20 C 1.2902 -2.1049 -3.5129 0
M  V30 21 O -1.5385 -0.8367 1.8328 0
M  V30 22 C 0.4812 0.4535 2.4866 0
M  V30 23 C 5.6778 3.061 -0.7622 0
M  V30 24 C 1.91 2.8738 0.6747 0
M  V30 25 C 3.1763 4.2694 2.2522 0
M  V30 26 C -0.9507 -0.6423 -2.4817 0 CFG=2
M  V30 27 C -0.0918 -2.7388 -3.6567 0 CFG=1
M  V30 28 C -2.579 -0.008 1.287 0 CFG=2
M  V30 29 C 0.1252 1.9572 2.4372 0
M  V30 30 C 0.2233 -0.0415 3.9215 0
M  V30 31 O 5.8028 1.939 -1.2316 0
M  V30 32 C 6.2425 4.3295 -1.3539 0
M  V30 33 O 2.1201 3.2174 -0.4876 0
M  V30 34 C 0.4891 2.6738 1.1548 0 CFG=2
M  V30 35 C -1.199 -1.6631 -3.6165 0 CFG=1
M  V30 36 C -1.8275 0.5985 -2.6412 0
M  V30 37 O -0.0518 -3.4574 -4.9058 0
M  V30 38 O -2.9527 0.9822 2.2417 0
M  V30 39 C -3.796 -0.9069 0.9568 0 CFG=2
M  V30 40 C 6.9461 4.0774 -2.6757 0
M  V30 41 O -0.4721 2.4458 0.1076 0
M  V30 42 C -0.4954 3.7494 0.6819 0
M  V30 43 O -2.4594 -2.3336 -3.3477 0
M  V30 44 C -1.1316 -4.3565 -5.1028 0
M  V30 45 C -3.9417 1.8753 1.7273 0 CFG=1
M  V30 46 O -3.4323 -1.8805 -0.0334 0
M  V30 47 C -4.9679 -0.0292 0.4358 0 CFG=2
M  V30 48 C -3.5752 -1.8503 -3.9545 0
M  V30 49 C -5.2349 1.1136 1.4313 0
M  V30 50 C -4.1751 2.9568 2.7743 0
M  V30 51 N -6.1696 -0.82 0.0591 0
M  V30 52 O -3.5993 -0.9445 -4.776 0
M  V30 53 C -4.8032 -2.5699 -3.4594 0
M  V30 54 C -7.092 -0.0681 -0.7894 0
M  V30 55 C -6.8797 -1.4332 1.1769 0
M  V30 56 C -4.8139 -4.0239 -3.8871 0
M  V30 57 H 3.6964 -1.9844 -0.5966 0
M  V30 58 H 5.6844 -0.5068 2.5941 0
M  V30 59 H 1.8925 -0.4727 0.0084 0
M  V30 60 H 4.0076 -4.2139 0.1593 0
M  V30 61 H 2.5615 -4.1922 1.1551 0
M  V30 62 H 2.4267 -4.1577 -0.6208 0
M  V30 63 H 6.1391 1.2369 1.3067 0
M  V30 64 H 3.7419 -0.8203 4.1614 0
M  V30 65 H 3.2974 0.8533 3.9457 0
M  V30 66 H 4.8587 0.4485 4.6705 0
M  V30 67 H 1.224 -1.9567 2.168 0
M  V30 68 H 3.986 1.5715 0.2527 0
M  V30 69 H 6.7394 1.8284 3.5623 0
M  V30 70 H 5.2156 2.6888 3.8075 0
M  V30 71 H 6.3906 3.278 2.6206 0
M  V30 72 H 2.3533 -0.7687 -2.2275 0
M  V30 73 H -0.2424 0.0215 0.4587 0
M  V30 74 H 0.4035 -3.9365 0.9117 0
M  V30 75 H -0.8174 -2.9462 0.1245 0
M  V30 76 H -0.861 -3.2088 1.8785 0
M  V30 77 H 2.7393 2.1901 2.5132 0
M  V30 78 H 1.5155 -1.5159 -4.4114 0
M  V30 79 H 2.0439 -2.9 -3.4559 0
M  V30 80 H 1.5563 0.3852 2.3059 0
M  V30 81 H 3.3493 4.9988 1.4529 0
M  V30 82 H 3.9918 4.3548 2.9727 0
M  V30 83 H 2.255 4.5739 2.7622 0
M  V30 84 H -1.2126 -1.096 -1.5192 0
M  V30 85 H -0.2439 -3.4691 -2.8507 0
M  V30 86 H -2.2333 0.4688 0.3637 0
M  V30 87 H 0.6372 2.4754 3.2586 0
M  V30 88 H -0.9354 2.093 2.6568 0
M  V30 89 H 0.4961 -1.093 4.0468 0
M  V30 90 H 0.8167 0.5344 4.6402 0
M  V30 91 H -0.8302 0.0693 4.1994 0
M  V30 92 H 6.9519 4.7593 -0.639 0
M  V30 93 H 5.4195 5.0348 -1.5114 0
M  V30 94 H -1.2224 -1.166 -4.5948 0
M  V30 95 H -1.5609 1.3587 -1.903 0
M  V30 96 H -1.6787 1.0581 -3.6245 0
M  V30 97 H -2.8882 0.3681 -2.5146 0
M  V30 98 H -4.0953 -1.4498 1.8612 0
M  V30 99 H 7.3397 5.0138 -3.0829 0
M  V30 100 H 6.2587 3.6459 -3.4109 0
M  V30 101 H 7.7817 3.3808 -2.5497 0
M  V30 102 H -0.1302 4.5671 0.0705 0
M  V30 103 H -1.3362 4.0113 1.3109 0
M  V30 104 H -2.0288 -3.8127 -5.4054 0
M  V30 105 H -0.8639 -5.0331 -5.9193 0
M  V30 106 H -1.3237 -4.9552 -4.2076 0
M  V30 107 H -3.5582 2.35 0.8152 0
M  V30 108 H -2.8004 -2.4695 0.4143 0
M  V30 109 H -4.6011 0.4188 -0.4995 0
M  V30 110 H -5.9863 1.8077 1.0391 0
M  V30 111 H -5.622 0.6987 2.3704 0
M  V30 112 H -4.9171 3.6859 2.435 0
M  V30 113 H -4.516 2.5215 3.7204 0
M  V30 114 H -3.2411 3.4855 2.9926 0
M  V30 115 H -5.6836 -2.0582 -3.8645 0
M  V30 116 H -4.854 -2.4779 -2.3701 0
M  V30 117 H -7.5727 0.7594 -0.2572 0
M  V30 118 H -6.5748 0.336 -1.6666 0
M  V30 119 H -7.8798 -0.7264 -1.1733 0
M  V30 120 H -7.3572 -0.6935 1.8283 0
M  V30 121 H -6.2175 -2.0567 1.7845 0
M  V30 122 H -7.6641 -2.1022 0.804 0
M  V30 123 H -5.7441 -4.5069 -3.5724 0
M  V30 124 H -3.9787 -4.574 -3.4417 0
M  V30 125 H -4.7299 -4.1136 -4.9751 0
M  V30 END ATOM
M  V30 BEGIN BOND
M  V30 1 2 1 2
M  V30 2 1 2 3
M  V30 3 1 2 4
M  V30 4 1 3 5
M  V30 5 1 4 6
M  V30 6 1 4 7
M  V30 7 1 5 8
M  V30 8 1 5 9
M  V30 9 1 6 10
M  V30 10 1 6 11
M  V30 11 1 8 12
M  V30 12 1 8 13
M  V30 13 1 10 14
M  V30 14 1 11 15
M  V30 15 1 11 16
M  V30 16 1 12 17
M  V30 17 1 12 18
M  V30 18 1 14 19
M  V30 19 1 14 20
M  V30 20 1 15 21
M  V30 21 1 15 22
M  V30 22 1 17 23
M  V30 23 1 18 24
M  V30 24 1 18 25
M  V30 25 1 19 26
M  V30 26 1 20 27
M  V30 27 1 21 28
M  V30 28 1 22 29
M  V30 29 1 22 30
M  V30 30 2 23 31
M  V30 31 1 23 32
M  V30 32 2 24 33
M  V30 33 1 24 34
M  V30 34 1 26 35
M  V30 35 1 26 36
M  V30 36 1 27 37
M  V30 37 1 28 38
M  V30 38 1 28 39
M  V30 39 1 32 40
M  V30 40 1 34 41
M  V30 41 1 34 42
M  V30 42 1 35 43
M  V30 43 1 37 44
M  V30 44 1 38 45
M  V30 45 1 39 46
M  V30 46 1 39 47
M  V30 47 1 43 48
M  V30 48 1 45 49
M  V30 49 1 45 50
M  V30 50 1 47 51
M  V30 51 2 48 52
M  V30 52 1 48 53
M  V30 53 1 51 54
M  V30 54 1 51 55
M  V30 55 1 53 56
M  V30 56 1 27 35
M  V30 57 1 29 34
M  V30 58 1 41 42
M  V30 59 1 47 49
M  V30 60 1 4 57
M  V30 61 1 5 58
M  V30 62 1 6 59
M  V30 63 1 7 60
M  V30 64 1 7 61
M  V30 65 1 7 62
M  V30 66 1 8 63
M  V30 67 1 9 64
M  V30 68 1 9 65
M  V30 69 1 9 66
M  V30 70 1 11 67
M  V30 71 1 12 68
M  V30 72 1 13 69
M  V30 73 1 13 70
M  V30 74 1 13 71
M  V30 75 1 14 72
M  V30 76 1 15 73
M  V30 77 1 16 74
M  V30 78 1 16 75
M  V30 79 1 16 76
M  V30 80 1 18 77
M  V30 81 1 20 78
M  V30 82 1 20 79
M  V30 83 1 22 80
M  V30 84 1 25 81
M  V30 85 1 25 82
M  V30 86 1 25 83
M  V30 87 1 26 84
M  V30 88 1 27 85
M  V30 89 1 28 86
M  V30 90 1 29 87
M  V30 91 1 29 88
M  V30 92 1 30 89
M  V30 93 1 30 90
M  V30 94 1 30 91
M  V30 95 1 32 92
M  V30 96 1 32 93
M  V30 97 1 35 94
M  V30 98 1 36 95
M  V30 99 1 36 96
M  V30 100 1 36 97
M  V30 101 1 39 98
M  V30 102 1 40 99
M  V30 103 1 40 100
M  V30 104 1 40 101
M  V30 105 1 42 102
M  V30 106 1 42 103
M  V30 107 1 44 104
M  V30 108 1 44 105
M  V30 109 1 44 106
M  V30 110 1 45 107
M  V30 111 1 46 108
M  V30 112 1 47 109
M  V30 113 1 49 110
M  V30 114 1 49 111
M  V30 115 1 50 112
M  V30 116 1 50 113
M  V30 117 1 50 114
M  V30 118 1 53 115
M  V30 119 1 53 116
M  V30 120 1 54 117
M  V30 121 1 54 118
M  V30 122 1 54 119
M  V30 123 1 55 120
M  V30 124 1 55 121
M  V30 125 1 55 122
M  V30 126 1 56 123
M  V30 127 1 56 124
M  V30 128 1 56 125
M  V30 END BOND
M  V30 BEGIN COLLECTION
M  V30 MDLV30/STEABS ATOMS=(16 5 6 8 11 12 14 15 18 26 27 28 34 35 39 45 47)
M  V30 END COLLECTION
M  V30 END CTAB
M  END
>  <level_0>
1431

>  <index>
1431

>  <NO.>
1432

>  <Name>
diproleandomycin

>  <SMILES>
CCC(=O)O[C@H]1[C@H](C)O[C@@H](O[C@@H]2C(C)C(=O)O[C@H](C)[C@H](C)[C@H](OC(=O)CC)[C@@H](C)C(=O)[C@]3(CO3)CC(C)[C@H](O[C@@H]3O[C@H](C)C[C@H](N(C)C)[C@H]3O)[C@H]2C)C[C@@H]1OC

>  <logBB>


>  <Class>
-1

>  <MW>
799.47

>  <nHBAcc>
15

>  <nHBDon>
1

>  <SLogP>
3.83

>  <TopoPSA>
178.12

>  <MMFF94 Energy>
125.23

$$$$
CCC(C)C(N)C1=NC(C(=O)N[C@@H](CC(C)C)C(=O)N[C@H](CCC(=O)O)C(=O)N[C@H](C(=O)NCCCC[C@@H]2NC(=O)[C@H](CC(N)=O)NC(=O)[C@@H](CC(=O)O)NC(=O)[C@H](Cc3cnc[nH]3)NC(=O)[C@@H](Cc3ccccc3)NC(=O)[C@H]([C@@H](C)CC)NC(=O)[C@@H](CCCN)NC2=O)[C@@H](C)CC)CS1
Actelion Java MolfileCreator 2.0

  0  0  0  0  0  0              0 V3000
M  V30 BEGIN CTAB
M  V30 COUNTS 203 206 0 0 0
M  V30 BEGIN ATOM
M  V30 1 S -8.9517 -5.7759 -5.6173 0
M  V30 2 C -9.7666 -5.4572 -4.0993 0
M  V30 3 C -9.1109 -4.0383 -6.0809 0
M  V30 4 N -9.9571 -4.2128 -3.7736 0
M  V30 5 C -10.227 -6.5979 -3.1877 0
M  V30 6 C -9.2089 -3.3419 -4.7342 0
M  V30 7 N -9.1424 -7.5722 -2.971 0
M  V30 8 C -11.582 -7.2241 -3.6138 0
M  V30 9 C -7.8165 -3.0464 -4.1424 0
M  V30 10 C -12.2611 -7.8937 -2.3945 0
M  V30 11 C -11.4616 -8.2161 -4.7784 0
M  V30 12 O -6.8344 -2.7632 -4.8207 0
M  V30 13 N -7.789 -3.1364 -2.7666 0
M  V30 14 C -13.6962 -8.334 -2.6527 0
M  V30 15 C -6.5425 -3.2607 -2.0343 0 CFG=2
M  V30 16 C -6.2241 -4.7732 -1.9912 0
M  V30 17 C -6.6487 -2.7214 -0.6055 0
M  V30 18 O -7.0898 -5.6438 -1.8928 0
M  V30 19 N -4.8852 -5.0664 -2.0594 0
M  V30 20 C -6.9334 -1.2092 -0.5139 0
M  V30 21 C -4.3748 -6.4417 -2.1418 0 CFG=1
M  V30 22 C -7.1191 -0.8068 0.9515 0
M  V30 23 C -5.8212 -0.3679 -1.142 0
M  V30 24 C -3.0551 -6.3468 -2.9366 0
M  V30 25 C -4.1889 -7.0338 -0.7444 0
M  V30 26 O -2.0345 -6.9707 -2.6698 0
M  V30 27 N -3.1604 -5.5024 -4.0284 0
M  V30 28 C -4.0545 -8.5565 -0.7746 0
M  V30 29 C -1.9906 -4.7981 -4.541 0 CFG=2
M  V30 30 C -3.8919 -9.1195 0.6104 0
M  V30 31 C -1.8383 -3.5757 -3.5953 0
M  V30 32 C -2.1639 -4.4252 -6.0308 0 CFG=2
M  V30 33 O -3.8132 -8.5041 1.6596 0
M  V30 34 O -3.8364 -10.4659 0.6015 0
M  V30 35 O -2.7921 -3.1208 -2.9563 0
M  V30 36 N -0.5679 -3.0534 -3.5171 0
M  V30 37 C -0.8676 -3.9414 -6.7143 0
M  V30 38 C -3.2662 -3.3788 -6.2593 0
M  V30 39 C -0.2565 -1.9086 -2.6832 0
M  V30 40 C 0.2549 -4.9691 -6.7127 0
M  V30 41 C -0.0373 -2.3245 -1.2285 0
M  V30 42 C 0.2661 -1.1377 -0.3093 0
M  V30 43 C 1.6929 -0.6065 -0.4745 0
M  V30 44 C 2.0249 0.7028 0.2667 0 CFG=2
M  V30 45 N 1.8954 0.6192 1.7222 0
M  V30 46 C 1.3728 1.9601 -0.368 0
M  V30 47 C 0.7029 0.6887 2.402 0
M  V30 48 O 0.6034 1.8992 -1.3303 0
M  V30 49 N 1.7243 3.2098 0.0719 0
M  V30 50 O -0.3693 0.8664 1.8256 0
M  V30 51 C 0.783 0.3716 3.9235 0 CFG=1
M  V30 52 C 2.8851 3.5744 0.8752 0 CFG=1
M  V30 53 N 1.8344 1.0769 4.6669 0
M  V30 54 C -0.587 0.5397 4.5884 0
M  V30 55 C 4.0578 3.8642 -0.0868 0
M  V30 56 C 2.5657 4.7057 1.8638 0
M  V30 57 C 3.1677 0.7715 4.5922 0
M  V30 58 C -1.0586 1.977 4.5824 0
M  V30 59 O 4.6985 2.9446 -0.5965 0
M  V30 60 N 4.2876 5.187 -0.4165 0
M  V30 61 C 2.0119 4.1414 3.1735 0
M  V30 62 O 3.6065 -0.034 3.7683 0
M  V30 63 C 4.0869 1.4995 5.5972 0 CFG=2
M  V30 64 O -0.7456 2.7883 5.448 0
M  V30 65 N -1.8375 2.3452 3.5318 0
M  V30 66 C 5.5473 5.5551 -1.0781 0 CFG=2
M  V30 67 C 1.7649 5.223 4.2196 0
M  V30 68 N 5.3767 1.6659 4.9182 0
M  V30 69 C 4.2213 0.6549 6.8635 0
M  V30 70 C 6.6811 5.5694 -0.0167 0
M  V30 71 C 5.4714 6.8871 -1.8641 0 CFG=2
M  V30 72 N 1.5065 4.5979 5.5086 0
M  V30 73 C 6.367 2.4933 5.3931 0
M  V30 74 C 3.0332 0.8451 7.7596 0
M  V30 75 O 7.8491 5.3201 -0.2974 0
M  V30 76 N 6.2687 5.9961 1.2312 0
M  V30 77 C 5.0812 8.1053 -0.9985 0
M  V30 78 C 4.5284 6.7243 -3.0638 0
M  V30 79 O 6.256 3.1312 6.4381 0
M  V30 80 C 7.6003 2.6104 4.4783 0 CFG=1
M  V30 81 O 1.9563 1.3312 7.4602 0
M  V30 82 O 3.2473 0.3609 8.9975 0
M  V30 83 C 7.0418 5.8579 2.4661 0 CFG=1
M  V30 84 C 5.1652 9.4325 -1.7428 0
M  V30 85 N 7.6665 3.9849 3.9836 0
M  V30 86 C 8.8597 2.2169 5.2629 0
M  V30 87 C 6.899 4.3829 2.9172 0
M  V30 88 C 8.4849 6.3853 2.4078 0
M  V30 89 C 10.1358 2.4552 4.5197 0
M  V30 90 O 6.0606 3.6186 2.4306 0
M  V30 91 C 8.5523 7.861 2.0752 0
M  V30 92 N 10.3284 2.1825 3.1853 0
M  V30 93 C 11.3443 2.9676 4.9435 0
M  V30 94 C 8.9492 8.2837 0.7998 0
M  V30 95 C 8.2023 8.8259 3.0307 0
M  V30 96 C 11.6019 2.5595 2.8664 0
M  V30 97 N 12.2394 3.0334 3.9105 0
M  V30 98 C 8.986 9.6419 0.4821 0
M  V30 99 C 8.2416 10.1843 2.7116 0
M  V30 100 C 8.631 10.5918 1.4373 0
M  V30 101 H -10.0407 -3.9171 -6.6456 0
M  V30 102 H -8.2722 -3.7107 -6.6998 0
M  V30 103 H -10.3887 -6.1123 -2.2142 0
M  V30 104 H -9.7305 -2.3836 -4.8344 0
M  V30 105 H -9.4007 -8.2011 -2.2135 0
M  V30 106 H -8.322 -7.0556 -2.6191 0
M  V30 107 H -12.2335 -6.4064 -3.9517 0
M  V30 108 H -12.278 -7.1842 -1.5579 0
M  V30 109 H -11.6785 -8.7608 -2.062 0
M  V30 110 H -12.4478 -8.5594 -5.1061 0
M  V30 111 H -10.879 -9.0995 -4.4983 0
M  V30 112 H -10.9942 -7.7611 -5.6533 0
M  V30 113 H -8.6407 -3.4991 -2.3423 0
M  V30 114 H -14.1547 -8.6784 -1.7199 0
M  V30 115 H -14.2986 -7.5062 -3.0395 0
M  V30 116 H -13.7426 -9.1625 -3.3647 0
M  V30 117 H -5.7445 -2.757 -2.5893 0
M  V30 118 H -7.4443 -3.2639 -0.0762 0
M  V30 119 H -5.7196 -2.9485 -0.0656 0
M  V30 120 H -4.2093 -4.2987 -2.1148 0
M  V30 121 H -7.8704 -0.9878 -1.0396 0
M  V30 122 H -5.0858 -7.0365 -2.7274 0
M  V30 123 H -7.9386 -1.3707 1.4093 0
M  V30 124 H -6.2106 -0.9946 1.5339 0
M  V30 125 H -7.3612 0.2579 1.0354 0
M  V30 126 H -5.7582 -0.5321 -2.2218 0
M  V30 127 H -4.8468 -0.6056 -0.7023 0
M  V30 128 H -6.009 0.7004 -0.9892 0
M  V30 129 H -5.0485 -6.7721 -0.1131 0
M  V30 130 H -3.3112 -6.5893 -0.257 0
M  V30 131 H -4.0649 -5.0621 -4.1692 0
M  V30 132 H -4.9552 -8.9961 -1.2173 0
M  V30 133 H -3.1844 -8.859 -1.3646 0
M  V30 134 H -1.1225 -5.4491 -4.399 0
M  V30 135 H -2.4831 -5.3355 -6.558 0
M  V30 136 H -3.7221 -10.7048 1.5449 0
M  V30 137 H 0.191 -3.5055 -4.0096 0
M  V30 138 H -1.0927 -3.6987 -7.7609 0
M  V30 139 H -0.5121 -3.0114 -6.2574 0
M  V30 140 H -3.4174 -3.2097 -7.3312 0
M  V30 141 H -4.2253 -3.7061 -5.848 0
M  V30 142 H -3.0092 -2.4154 -5.8071 0
M  V30 143 H -1.0763 -1.1853 -2.7559 0
M  V30 144 H 0.6421 -1.45 -3.1049 0
M  V30 145 H 1.087 -4.6136 -7.329 0
M  V30 146 H 0.6457 -5.1433 -5.7068 0
M  V30 147 H -0.0857 -5.9242 -7.1242 0
M  V30 148 H 0.7669 -3.0677 -1.1652 0
M  V30 149 H -0.9433 -2.8216 -0.8591 0
M  V30 150 H 0.1349 -1.4796 0.7236 0
M  V30 151 H -0.4708 -0.3482 -0.4881 0
M  V30 152 H 1.9069 -0.4548 -1.5387 0
M  V30 153 H 2.3862 -1.3855 -0.1305 0
M  V30 154 H 3.1023 0.8449 0.1076 0
M  V30 155 H 2.7153 0.3196 2.2501 0
M  V30 156 H 1.2468 3.9369 -0.4451 0
M  V30 157 H 1.0428 -0.6947 3.9759 0
M  V30 158 H 3.2298 2.7096 1.4483 0
M  V30 159 H 1.5431 1.7541 5.3789 0
M  V30 160 H -0.5462 0.2104 5.6338 0
M  V30 161 H -1.3371 -0.0852 4.0888 0
M  V30 162 H 1.8549 5.4195 1.4302 0
M  V30 163 H 3.4759 5.2633 2.107 0
M  V30 164 H 3.6138 5.9 -0.1779 0
M  V30 165 H 1.0843 3.5913 2.9808 0
M  V30 166 H 2.7448 3.4293 3.5675 0
M  V30 167 H 3.6939 2.4994 5.8113 0
M  V30 168 H -2.1826 3.2929 3.4779 0
M  V30 169 H -1.8967 1.7663 2.6947 0
M  V30 170 H 5.8079 4.7484 -1.7756 0
M  V30 171 H 0.9171 5.8515 3.9274 0
M  V30 172 H 2.6445 5.8684 4.314 0
M  V30 173 H 5.4656 1.2542 3.992 0
M  V30 174 H 4.3093 -0.4111 6.6257 0
M  V30 175 H 5.1106 0.9545 7.429 0
M  V30 176 H 6.4763 7.0805 -2.2646 0
M  V30 177 H 1.3145 5.3153 6.2079 0
M  V30 178 H 0.635 4.0469 5.4688 0
M  V30 179 H 5.2805 6.1596 1.3375 0
M  V30 180 H 4.0657 7.99 -0.6036 0
M  V30 181 H 5.7521 8.1781 -0.1371 0
M  V30 182 H 4.6037 7.5756 -3.747 0
M  V30 183 H 4.7821 5.8287 -3.641 0
M  V30 184 H 3.4848 6.6371 -2.7435 0
M  V30 185 H 7.4836 1.942 3.6165 0
M  V30 186 H 2.4172 0.547 9.4855 0
M  V30 187 H 6.4859 6.439 3.2144 0
M  V30 188 H 4.9927 10.2616 -1.0486 0
M  V30 189 H 6.1534 9.5693 -2.1927 0
M  V30 190 H 4.4095 9.5017 -2.5303 0
M  V30 191 H 8.2133 4.6506 4.5155 0
M  V30 192 H 8.8004 1.1575 5.5424 0
M  V30 193 H 8.9006 2.7795 6.2054 0
M  V30 194 H 8.9792 6.2519 3.3781 0
M  V30 195 H 9.0964 5.8045 1.7087 0
M  V30 196 H 9.6541 1.8036 2.5335 0
M  V30 197 H 11.6149 3.2995 5.9382 0
M  V30 198 H 9.2297 7.5538 0.0424 0
M  V30 199 H 7.9014 8.5291 4.0325 0
M  V30 200 H 12.0026 2.4657 1.8657 0
M  V30 201 H 9.2958 9.9567 -0.5108 0
M  V30 202 H 7.9729 10.9264 3.459 0
M  V30 203 H 8.6649 11.6495 1.1903 0
M  V30 END ATOM
M  V30 BEGIN BOND
M  V30 1 1 1 2
M  V30 2 1 1 3
M  V30 3 2 2 4
M  V30 4 1 2 5
M  V30 5 1 3 6
M  V30 6 1 5 7
M  V30 7 1 5 8
M  V30 8 1 6 9
M  V30 9 1 8 10
M  V30 10 1 8 11
M  V30 11 2 9 12
M  V30 12 1 9 13
M  V30 13 1 10 14
M  V30 14 1 13 15
M  V30 15 1 15 16
M  V30 16 1 15 17
M  V30 17 2 16 18
M  V30 18 1 16 19
M  V30 19 1 17 20
M  V30 20 1 19 21
M  V30 21 1 20 22
M  V30 22 1 20 23
M  V30 23 1 21 24
M  V30 24 1 21 25
M  V30 25 2 24 26
M  V30 26 1 24 27
M  V30 27 1 25 28
M  V30 28 1 27 29
M  V30 29 1 28 30
M  V30 30 1 29 31
M  V30 31 1 29 32
M  V30 32 2 30 33
M  V30 33 1 30 34
M  V30 34 2 31 35
M  V30 35 1 31 36
M  V30 36 1 32 37
M  V30 37 1 32 38
M  V30 38 1 36 39
M  V30 39 1 37 40
M  V30 40 1 39 41
M  V30 41 1 41 42
M  V30 42 1 42 43
M  V30 43 1 43 44
M  V30 44 1 44 45
M  V30 45 1 44 46
M  V30 46 1 45 47
M  V30 47 2 46 48
M  V30 48 1 46 49
M  V30 49 2 47 50
M  V30 50 1 47 51
M  V30 51 1 49 52
M  V30 52 1 51 53
M  V30 53 1 51 54
M  V30 54 1 52 55
M  V30 55 1 52 56
M  V30 56 1 53 57
M  V30 57 1 54 58
M  V30 58 2 55 59
M  V30 59 1 55 60
M  V30 60 1 56 61
M  V30 61 2 57 62
M  V30 62 1 57 63
M  V30 63 2 58 64
M  V30 64 1 58 65
M  V30 65 1 60 66
M  V30 66 1 61 67
M  V30 67 1 63 68
M  V30 68 1 63 69
M  V30 69 1 66 70
M  V30 70 1 66 71
M  V30 71 1 67 72
M  V30 72 1 68 73
M  V30 73 1 69 74
M  V30 74 2 70 75
M  V30 75 1 70 76
M  V30 76 1 71 77
M  V30 77 1 71 78
M  V30 78 2 73 79
M  V30 79 1 73 80
M  V30 80 2 74 81
M  V30 81 1 74 82
M  V30 82 1 76 83
M  V30 83 1 77 84
M  V30 84 1 80 85
M  V30 85 1 80 86
M  V30 86 1 83 87
M  V30 87 1 83 88
M  V30 88 1 86 89
M  V30 89 2 87 90
M  V30 90 1 88 91
M  V30 91 1 89 92
M  V30 92 2 89 93
M  V30 93 2 91 94
M  V30 94 1 91 95
M  V30 95 1 92 96
M  V30 96 1 93 97
M  V30 97 1 94 98
M  V30 98 2 95 99
M  V30 99 2 98 100
M  V30 100 1 4 6
M  V30 101 1 85 87
M  V30 102 2 96 97
M  V30 103 1 99 100
M  V30 104 1 3 101
M  V30 105 1 3 102
M  V30 106 1 5 103
M  V30 107 1 6 104
M  V30 108 1 7 105
M  V30 109 1 7 106
M  V30 110 1 8 107
M  V30 111 1 10 108
M  V30 112 1 10 109
M  V30 113 1 11 110
M  V30 114 1 11 111
M  V30 115 1 11 112
M  V30 116 1 13 113
M  V30 117 1 14 114
M  V30 118 1 14 115
M  V30 119 1 14 116
M  V30 120 1 15 117
M  V30 121 1 17 118
M  V30 122 1 17 119
M  V30 123 1 19 120
M  V30 124 1 20 121
M  V30 125 1 21 122
M  V30 126 1 22 123
M  V30 127 1 22 124
M  V30 128 1 22 125
M  V30 129 1 23 126
M  V30 130 1 23 127
M  V30 131 1 23 128
M  V30 132 1 25 129
M  V30 133 1 25 130
M  V30 134 1 27 131
M  V30 135 1 28 132
M  V30 136 1 28 133
M  V30 137 1 29 134
M  V30 138 1 32 135
M  V30 139 1 34 136
M  V30 140 1 36 137
M  V30 141 1 37 138
M  V30 142 1 37 139
M  V30 143 1 38 140
M  V30 144 1 38 141
M  V30 145 1 38 142
M  V30 146 1 39 143
M  V30 147 1 39 144
M  V30 148 1 40 145
M  V30 149 1 40 146
M  V30 150 1 40 147
M  V30 151 1 41 148
M  V30 152 1 41 149
M  V30 153 1 42 150
M  V30 154 1 42 151
M  V30 155 1 43 152
M  V30 156 1 43 153
M  V30 157 1 44 154
M  V30 158 1 45 155
M  V30 159 1 49 156
M  V30 160 1 51 157
M  V30 161 1 52 158
M  V30 162 1 53 159
M  V30 163 1 54 160
M  V30 164 1 54 161
M  V30 165 1 56 162
M  V30 166 1 56 163
M  V30 167 1 60 164
M  V30 168 1 61 165
M  V30 169 1 61 166
M  V30 170 1 63 167
M  V30 171 1 65 168
M  V30 172 1 65 169
M  V30 173 1 66 170
M  V30 174 1 67 171
M  V30 175 1 67 172
M  V30 176 1 68 173
M  V30 177 1 69 174
M  V30 178 1 69 175
M  V30 179 1 71 176
M  V30 180 1 72 177
M  V30 181 1 72 178
M  V30 182 1 76 179
M  V30 183 1 77 180
M  V30 184 1 77 181
M  V30 185 1 78 182
M  V30 186 1 78 183
M  V30 187 1 78 184
M  V30 188 1 80 185
M  V30 189 1 82 186
M  V30 190 1 83 187
M  V30 191 1 84 188
M  V30 192 1 84 189
M  V30 193 1 84 190
M  V30 194 1 85 191
M  V30 195 1 86 192
M  V30 196 1 86 193
M  V30 197 1 88 194
M  V30 198 1 88 195
M  V30 199 1 92 196
M  V30 200 1 93 197
M  V30 201 1 94 198
M  V30 202 1 95 199
M  V30 203 1 96 200
M  V30 204 1 98 201
M  V30 205 1 99 202
M  V30 206 1 100 203
M  V30 END BOND
M  V30 BEGIN COLLECTION
M  V30 MDLV30/STEABS ATOMS=(12 15 21 29 32 44 51 52 63 66 71 80 83)
M  V30 END COLLECTION
M  V30 END CTAB
M  END
>  <level_0>
1456

>  <index>
1456

>  <NO.>
1457

>  <Name>
bacitracin

>  <SMILES>
CCC(C)C(N)C1=NC(C(=O)N[C@@H](CC(C)C)C(=O)N[C@H](CCC(=O)O)C(=O)N[C@H](C(=O)NCCCC[C@@H]2NC(=O)[C@H](CC(N)=O)NC(=O)[C@@H](CC(=O)O)NC(=O)[C@H](Cc3cnc[nH]3)NC(=O)[C@@H](Cc3ccccc3)NC(=O)[C@H]([C@@H](C)CC)NC(=O)[C@@H](CCCN)NC2=O)[C@@H](C)CC)CS1

>  <logBB>


>  <Class>
-1

>  <MW>
1421.75

>  <nHBAcc>
19

>  <nHBDon>
17

>  <SLogP>
-1.68

>  <TopoPSA>
530.87

>  <MMFF94 Energy>
107.38

$$$$
CCCC1CC(C(=O)NC(C(C)O)C2OC(SC)C(O)C(O)C2O)N(C)C1
Actelion Java MolfileCreator 2.0

  0  0  0  0  0  0              0 V3000
M  V30 BEGIN CTAB
M  V30 COUNTS 61 62 0 0 0
M  V30 BEGIN ATOM
M  V30 1 S 4.0658 1.9117 -1.7523 0
M  V30 2 C 3.6094 0.8975 -0.2967 0
M  V30 3 C 2.5431 2.8746 -1.8832 0
M  V30 4 O 2.5318 0.0251 -0.6422 0
M  V30 5 C 4.8381 0.0782 0.1497 0
M  V30 6 C 2.0506 -0.7498 0.4784 0
M  V30 7 O 5.317 -0.7843 -0.8949 0
M  V30 8 C 4.4437 -0.7926 1.338 0
M  V30 9 C 3.1952 -1.6363 1.027 0
M  V30 10 C 0.822 -1.583 -0.0039 0
M  V30 11 O 4.1823 0.0301 2.4863 0
M  V30 12 O 2.8199 -2.2887 2.2486 0
M  V30 13 N -0.1523 -0.7239 -0.6954 0
M  V30 14 C 0.1101 -2.4071 1.1136 0
M  V30 15 C -0.8382 -1.1252 -1.8225 0
M  V30 16 O -1.0174 -3.1123 0.5745 0
M  V30 17 C -0.3945 -1.5652 2.2816 0
M  V30 18 O -0.5964 -2.1528 -2.4512 0
M  V30 19 C -2.0002 -0.1982 -2.2089 0
M  V30 20 N -1.6354 1.2331 -2.0333 0
M  V30 21 C -3.206 -0.398 -1.2815 0
M  V30 22 C -2.9136 1.9189 -1.8306 0
M  V30 23 C -0.9316 1.7444 -3.2066 0
M  V30 24 C -3.6385 1.0079 -0.8403 0
M  V30 25 C -3.2567 1.3294 0.6168 0
M  V30 26 C -4.0912 0.5457 1.6339 0
M  V30 27 C -3.7507 0.9511 3.06 0
M  V30 28 H 3.2904 1.5789 0.5007 0
M  V30 29 H 1.6823 2.2147 -1.9975 0
M  V30 30 H 2.4105 3.4981 -0.9951 0
M  V30 31 H 2.6013 3.526 -2.759 0
M  V30 32 H 5.6551 0.7514 0.436 0
M  V30 33 H 1.7098 -0.0436 1.2458 0
M  V30 34 H 5.2183 -0.2766 -1.726 0
M  V30 35 H 5.2676 -1.462 1.6123 0
M  V30 36 H 3.4461 -2.4028 0.2836 0
M  V30 37 H 1.1762 -2.2956 -0.7602 0
M  V30 38 H 3.7323 -0.5523 3.1312 0
M  V30 39 H 3.4596 -3.0134 2.3868 0
M  V30 40 H -0.3687 0.2045 -0.3514 0
M  V30 41 H 0.7868 -3.1813 1.4837 0
M  V30 42 H -1.3452 -3.7168 1.2604 0
M  V30 43 H -0.9256 -2.1957 3.0034 0
M  V30 44 H -1.1138 -0.814 1.9421 0
M  V30 45 H 0.4171 -1.0602 2.8106 0
M  V30 46 H -2.2938 -0.4133 -3.2448 0
M  V30 47 H -4.0205 -0.8629 -1.8507 0
M  V30 48 H -2.9887 -1.0583 -0.4368 0
M  V30 49 H -3.4897 1.9795 -2.7636 0
M  V30 50 H -2.7748 2.9344 -1.4455 0
M  V30 51 H -1.531 1.6709 -4.1213 0
M  V30 52 H 0.0018 1.1954 -3.3679 0
M  V30 53 H -0.6648 2.7963 -3.0575 0
M  V30 54 H -4.7231 1.1257 -0.9528 0
M  V30 55 H -3.4125 2.4016 0.7928 0
M  V30 56 H -2.1915 1.1368 0.7884 0
M  V30 57 H -5.1578 0.726 1.4566 0
M  V30 58 H -3.9222 -0.5302 1.5244 0
M  V30 59 H -4.3538 0.3778 3.7709 0
M  V30 60 H -2.6954 0.7637 3.281 0
M  V30 61 H -3.9524 2.0144 3.2244 0
M  V30 END ATOM
M  V30 BEGIN BOND
M  V30 1 1 1 2
M  V30 2 1 1 3
M  V30 3 1 2 4
M  V30 4 1 2 5
M  V30 5 1 4 6
M  V30 6 1 5 7
M  V30 7 1 5 8
M  V30 8 1 6 9
M  V30 9 1 6 10
M  V30 10 1 8 11
M  V30 11 1 9 12
M  V30 12 1 10 13
M  V30 13 1 10 14
M  V30 14 1 13 15
M  V30 15 1 14 16
M  V30 16 1 14 17
M  V30 17 2 15 18
M  V30 18 1 15 19
M  V30 19 1 19 20
M  V30 20 1 19 21
M  V30 21 1 20 22
M  V30 22 1 20 23
M  V30 23 1 21 24
M  V30 24 1 24 25
M  V30 25 1 25 26
M  V30 26 1 26 27
M  V30 27 1 8 9
M  V30 28 1 22 24
M  V30 29 1 2 28
M  V30 30 1 3 29
M  V30 31 1 3 30
M  V30 32 1 3 31
M  V30 33 1 5 32
M  V30 34 1 6 33
M  V30 35 1 7 34
M  V30 36 1 8 35
M  V30 37 1 9 36
M  V30 38 1 10 37
M  V30 39 1 11 38
M  V30 40 1 12 39
M  V30 41 1 13 40
M  V30 42 1 14 41
M  V30 43 1 16 42
M  V30 44 1 17 43
M  V30 45 1 17 44
M  V30 46 1 17 45
M  V30 47 1 19 46
M  V30 48 1 21 47
M  V30 49 1 21 48
M  V30 50 1 22 49
M  V30 51 1 22 50
M  V30 52 1 23 51
M  V30 53 1 23 52
M  V30 54 1 23 53
M  V30 55 1 24 54
M  V30 56 1 25 55
M  V30 57 1 25 56
M  V30 58 1 26 57
M  V30 59 1 26 58
M  V30 60 1 27 59
M  V30 61 1 27 60
M  V30 62 1 27 61
M  V30 END BOND
M  V30 END CTAB
M  END
>  <level_0>
1507

>  <index>
1507

>  <NO.>
1508

>  <Name>
lincomycine

>  <SMILES>
CCCC1CC(C(=O)NC(C(C)O)C2OC(SC)C(O)C(O)C2O)N(C)C1

>  <logBB>


>  <Class>
-1

>  <MW>
406.21

>  <nHBAcc>
8

>  <nHBDon>
5

>  <SLogP>
-0.86

>  <TopoPSA>
122.49

>  <MMFF94 Energy>
146.06

$$$$
CCCCCC(C)C(C)c1cc(OC(=O)CCCN2CCCCCC2)c2c(c1)OC(C)(C)C1=C2CC(C)CC1
Actelion Java MolfileCreator 2.0

  0  0  0  0  0  0              0 V3000
M  V30 BEGIN CTAB
M  V30 COUNTS 94 97 0 0 0
M  V30 BEGIN ATOM
M  V30 1 O 1.0269 -2.7667 0.7108 0
M  V30 2 C 0.5552 -2.2247 -0.2799 0
M  V30 3 O -0.2374 -1.0829 -0.3163 0
M  V30 4 C 0.784 -2.7093 -1.6885 0
M  V30 5 C -0.4824 -0.5405 0.9517 0
M  V30 6 C 1.9198 -1.9291 -2.3393 0
M  V30 7 C -1.6948 -0.767 1.6269 0
M  V30 8 C 0.5313 0.2754 1.4812 0
M  V30 9 C 2.2038 -2.4491 -3.7531 0
M  V30 10 C -1.8046 -0.2005 2.9025 0
M  V30 11 C -2.8593 -1.5173 1.0991 0
M  V30 12 C 0.3806 0.8678 2.7372 0
M  V30 13 N 3.2078 -1.6439 -4.4639 0
M  V30 14 O -2.9033 -0.3589 3.7014 0
M  V30 15 C -0.7988 0.6124 3.4443 0
M  V30 16 C -3.8098 -1.898 1.9809 0
M  V30 17 C -2.9642 -1.8202 -0.3761 0
M  V30 18 C 1.487 1.7464 3.3072 0
M  V30 19 C 4.5211 -1.6665 -3.805 0
M  V30 20 C 3.2178 -1.9211 -5.9014 0
M  V30 21 C -3.7148 -1.5273 3.4607 0
M  V30 22 C -5.0047 -2.7279 1.5553 0
M  V30 23 C -4.3676 -2.2583 -0.8246 0
M  V30 24 C 1.0056 3.2059 3.605 0
M  V30 25 C 2.0909 1.0416 4.5317 0
M  V30 26 C 5.729 -1.293 -4.6738 0
M  V30 27 C 3.8157 -3.2567 -6.3479 0
M  V30 28 C -3.126 -2.6897 4.2769 0
M  V30 29 C -5.0827 -1.144 4.0529 0
M  V30 30 C -4.9046 -3.308 0.1451 0
M  V30 31 C -4.3376 -2.7922 -2.2549 0
M  V30 32 C 0.5214 3.897 2.303 0
M  V30 33 C 2.1093 4.0347 4.279 0
M  V30 34 C 6.1278 -2.3062 -5.7582 0
M  V30 35 C 5.2413 -3.5428 -5.878 0
M  V30 36 C -0.1057 5.2783 2.5251 0
M  V30 37 C -0.7201 5.8208 1.2317 0
M  V30 38 C -1.3397 7.2015 1.4467 0
M  V30 39 C -1.9523 7.7427 0.1649 0
M  V30 40 H -0.1482 -2.6167 -2.2573 0
M  V30 41 H 1.0184 -3.7791 -1.6438 0
M  V30 42 H 1.6588 -0.8638 -2.3797 0
M  V30 43 H 2.814 -2.0106 -1.7097 0
M  V30 44 H 1.4394 0.4366 0.9056 0
M  V30 45 H 2.5107 -3.5017 -3.708 0
M  V30 46 H 1.2582 -2.4177 -4.3099 0
M  V30 47 H -0.952 1.0389 4.433 0
M  V30 48 H -2.6929 -0.9337 -0.9625 0
M  V30 49 H -2.2532 -2.6188 -0.6188 0
M  V30 50 H 2.2894 1.8145 2.5591 0
M  V30 51 H 4.4856 -0.9419 -2.9816 0
M  V30 52 H 4.7141 -2.6401 -3.3377 0
M  V30 53 H 2.1914 -1.8588 -6.2877 0
M  V30 54 H 3.7327 -1.1019 -6.419 0
M  V30 55 H -5.9014 -2.0976 1.6049 0
M  V30 56 H -5.1538 -3.5596 2.2532 0
M  V30 57 H -5.0342 -1.3851 -0.8045 0
M  V30 58 H 0.1586 3.1671 4.3025 0
M  V30 59 H 1.4102 1.0677 5.3897 0
M  V30 60 H 3.0345 1.5071 4.8326 0
M  V30 61 H 2.3125 -0.0096 4.3132 0
M  V30 62 H 5.5639 -0.3108 -5.1352 0
M  V30 63 H 6.592 -1.1525 -4.0096 0
M  V30 64 H 3.1665 -4.0848 -6.0384 0
M  V30 65 H 3.8089 -3.2675 -7.4458 0
M  V30 66 H -2.1309 -2.9696 3.912 0
M  V30 67 H -3.7622 -3.5801 4.2409 0
M  V30 68 H -2.9977 -2.4011 5.3268 0
M  V30 69 H -5.5377 -0.3239 3.4846 0
M  V30 70 H -4.9724 -0.7793 5.0816 0
M  V30 71 H -5.7833 -1.985 4.0715 0
M  V30 72 H -4.2434 -4.1844 0.1545 0
M  V30 73 H -5.8928 -3.6603 -0.1734 0
M  V30 74 H -3.6971 -3.6767 -2.338 0
M  V30 75 H -5.3435 -3.0714 -2.5852 0
M  V30 76 H -3.9565 -2.0318 -2.9445 0
M  V30 77 H -0.2294 3.2677 1.8119 0
M  V30 78 H 1.3607 3.9881 1.6018 0
M  V30 79 H 1.7739 5.0523 4.4983 0
M  V30 80 H 2.403 3.6034 5.2405 0
M  V30 81 H 2.9986 4.0981 3.6436 0
M  V30 82 H 6.1762 -1.7949 -6.7278 0
M  V30 83 H 7.1527 -2.6405 -5.5521 0
M  V30 84 H 5.2165 -4.0785 -4.922 0
M  V30 85 H 5.7023 -4.2424 -6.5866 0
M  V30 86 H 0.6513 5.9864 2.8782 0
M  V30 87 H -0.8804 5.211 3.2982 0
M  V30 88 H -1.4887 5.1269 0.87 0
M  V30 89 H 0.0523 5.8809 0.4556 0
M  V30 90 H -2.1146 7.1456 2.2201 0
M  V30 91 H -0.5753 7.9016 1.8033 0
M  V30 92 H -2.3894 8.7306 0.3414 0
M  V30 93 H -1.196 7.8411 -0.6201 0
M  V30 94 H -2.7441 7.0814 -0.201 0
M  V30 END ATOM
M  V30 BEGIN BOND
M  V30 1 2 1 2
M  V30 2 1 2 3
M  V30 3 1 2 4
M  V30 4 1 3 5
M  V30 5 1 4 6
M  V30 6 2 5 7
M  V30 7 1 5 8
M  V30 8 1 6 9
M  V30 9 1 7 10
M  V30 10 1 7 11
M  V30 11 2 8 12
M  V30 12 1 9 13
M  V30 13 1 10 14
M  V30 14 2 10 15
M  V30 15 2 11 16
M  V30 16 1 11 17
M  V30 17 1 12 18
M  V30 18 1 13 19
M  V30 19 1 13 20
M  V30 20 1 14 21
M  V30 21 1 16 22
M  V30 22 1 17 23
M  V30 23 1 18 24
M  V30 24 1 18 25
M  V30 25 1 19 26
M  V30 26 1 20 27
M  V30 27 1 21 28
M  V30 28 1 21 29
M  V30 29 1 22 30
M  V30 30 1 23 31
M  V30 31 1 24 32
M  V30 32 1 24 33
M  V30 33 1 26 34
M  V30 34 1 27 35
M  V30 35 1 32 36
M  V30 36 1 36 37
M  V30 37 1 37 38
M  V30 38 1 38 39
M  V30 39 1 12 15
M  V30 40 1 16 21
M  V30 41 1 23 30
M  V30 42 1 34 35
M  V30 43 1 4 40
M  V30 44 1 4 41
M  V30 45 1 6 42
M  V30 46 1 6 43
M  V30 47 1 8 44
M  V30 48 1 9 45
M  V30 49 1 9 46
M  V30 50 1 15 47
M  V30 51 1 17 48
M  V30 52 1 17 49
M  V30 53 1 18 50
M  V30 54 1 19 51
M  V30 55 1 19 52
M  V30 56 1 20 53
M  V30 57 1 20 54
M  V30 58 1 22 55
M  V30 59 1 22 56
M  V30 60 1 23 57
M  V30 61 1 24 58
M  V30 62 1 25 59
M  V30 63 1 25 60
M  V30 64 1 25 61
M  V30 65 1 26 62
M  V30 66 1 26 63
M  V30 67 1 27 64
M  V30 68 1 27 65
M  V30 69 1 28 66
M  V30 70 1 28 67
M  V30 71 1 28 68
M  V30 72 1 29 69
M  V30 73 1 29 70
M  V30 74 1 29 71
M  V30 75 1 30 72
M  V30 76 1 30 73
M  V30 77 1 31 74
M  V30 78 1 31 75
M  V30 79 1 31 76
M  V30 80 1 32 77
M  V30 81 1 32 78
M  V30 82 1 33 79
M  V30 83 1 33 80
M  V30 84 1 33 81
M  V30 85 1 34 82
M  V30 86 1 34 83
M  V30 87 1 35 84
M  V30 88 1 35 85
M  V30 89 1 36 86
M  V30 90 1 36 87
M  V30 91 1 37 88
M  V30 92 1 37 89
M  V30 93 1 38 90
M  V30 94 1 38 91
M  V30 95 1 39 92
M  V30 96 1 39 93
M  V30 97 1 39 94
M  V30 END BOND
M  V30 END CTAB
M  END
>  <level_0>
1517

>  <index>
1517

>  <NO.>
1518

>  <Name>
nabazenil

>  <SMILES>
CCCCCC(C)C(C)c1cc(OC(=O)CCCN2CCCCCC2)c2c(c1)OC(C)(C)C1=C2CC(C)CC1

>  <logBB>


>  <Class>
1

>  <MW>
537.42

>  <nHBAcc>
4

>  <nHBDon>
0

>  <SLogP>
9.31

>  <TopoPSA>
38.77

>  <MMFF94 Energy>
87.177

$$$$
CCCCCCC(=O)OCCN1CCN(CCCN2c3ccccc3Sc3ccc(C(F)(F)F)cc32)CC1
Actelion Java MolfileCreator 2.0

  0  0  0  0  0  0              0 V3000
M  V30 BEGIN CTAB
M  V30 COUNTS 76 79 0 0 0
M  V30 BEGIN ATOM
M  V30 1 S 0.8848 -4.6723 7.4999 0
M  V30 2 C 2.0197 -4.8767 6.1502 0
M  V30 3 C -0.3208 -3.5586 6.8219 0
M  V30 4 C 1.9527 -4.1403 4.9511 0
M  V30 5 C 3.0295 -5.837 6.3588 0
M  V30 6 C -0.1889 -2.9312 5.5665 0
M  V30 7 C -1.4435 -3.3204 7.6412 0
M  V30 8 N 0.9449 -3.1561 4.7304 0
M  V30 9 C 2.9346 -4.4471 3.9793 0
M  V30 10 C 3.9844 -6.1033 5.3837 0
M  V30 11 C -1.2524 -2.0798 5.1865 0
M  V30 12 C -2.4632 -2.469 7.2344 0
M  V30 13 C 1.1226 -2.2432 3.5726 0
M  V30 14 C 3.9393 -5.4168 4.1739 0
M  V30 15 C -2.3681 -1.8492 6.0013 0
M  V30 16 C 0.4565 -2.8052 2.3074 0
M  V30 17 C 4.9656 -5.6745 3.0989 0
M  V30 18 C 0.7912 -1.9774 1.0612 0
M  V30 19 F 4.4572 -5.5518 1.8403 0
M  V30 20 F 6.0115 -4.8059 3.164 0
M  V30 21 F 5.5086 -6.922 3.1593 0
M  V30 22 N 0.3754 -0.5707 1.16 0
M  V30 23 C -1.0909 -0.4189 1.0377 0
M  V30 24 C 1.0141 0.2265 0.0892 0
M  V30 25 C -1.529 1.0633 1.0713 0
M  V30 26 C 0.5778 1.7106 0.1107 0
M  V30 27 N -0.8864 1.8687 0.013 0
M  V30 28 C -1.3082 3.2805 0.1219 0
M  V30 29 C -0.8612 4.1806 -1.042 0
M  V30 30 O -1.4314 3.6991 -2.268 0
M  V30 31 C -0.9724 4.3247 -3.3862 0
M  V30 32 O -0.1676 5.2451 -3.396 0
M  V30 33 C -1.6173 3.7074 -4.6047 0
M  V30 34 C -1.1261 4.3525 -5.8992 0
M  V30 35 C -1.7846 3.7154 -7.1232 0
M  V30 36 C -1.2926 4.3615 -8.4193 0
M  V30 37 C -1.9509 3.7246 -9.6427 0
M  V30 38 C -1.4643 4.3641 -10.9333 0
M  V30 39 H 3.0734 -6.3894 7.2963 0
M  V30 40 H -1.5269 -3.807 8.6113 0
M  V30 41 H 2.9405 -3.9448 3.0155 0
M  V30 42 H 4.753 -6.8502 5.5734 0
M  V30 43 H -1.2574 -1.5688 4.2301 0
M  V30 44 H -3.3231 -2.2967 7.8753 0
M  V30 45 H 2.1871 -2.0469 3.392 0
M  V30 46 H 0.7461 -1.2387 3.8013 0
M  V30 47 H -3.1587 -1.1846 5.6624 0
M  V30 48 H -0.6278 -2.8799 2.4393 0
M  V30 49 H 0.7932 -3.8333 2.1293 0
M  V30 50 H 1.8801 -2.0251 0.927 0
M  V30 51 H 0.3504 -2.4545 0.1764 0
M  V30 52 H -1.5925 -0.9284 1.8669 0
M  V30 53 H -1.4506 -0.878 0.107 0
M  V30 54 H 2.1035 0.1944 0.2132 0
M  V30 55 H 0.7843 -0.2005 -0.8964 0
M  V30 56 H -2.6179 1.0964 0.9439 0
M  V30 57 H -1.3031 1.4798 2.0625 0
M  V30 58 H 1.0661 2.204 -0.7363 0
M  V30 59 H 0.9546 2.181 1.0287 0
M  V30 60 H -0.9569 3.715 1.0664 0
M  V30 61 H -2.4056 3.3052 0.139 0
M  V30 62 H -1.2332 5.1967 -0.864 0
M  V30 63 H 0.2311 4.2184 -1.1124 0
M  V30 64 H -2.7023 3.8322 -4.5169 0
M  V30 65 H -1.3796 2.6378 -4.6117 0
M  V30 66 H -0.036 4.2517 -5.9711 0
M  V30 67 H -1.3424 5.4281 -5.8807 0
M  V30 68 H -2.874 3.8209 -7.0508 0
M  V30 69 H -1.5641 2.6412 -7.1415 0
M  V30 70 H -0.2033 4.2564 -8.4917 0
M  V30 71 H -1.513 5.4358 -8.4011 0
M  V30 72 H -1.7303 2.6512 -9.6679 0
M  V30 73 H -3.04 3.8307 -9.5773 0
M  V30 74 H -1.9478 3.8936 -11.7951 0
M  V30 75 H -1.6987 5.4332 -10.954 0
M  V30 76 H -0.3818 4.2471 -11.0451 0
M  V30 END ATOM
M  V30 BEGIN BOND
M  V30 1 1 1 2
M  V30 2 1 1 3
M  V30 3 2 2 4
M  V30 4 1 2 5
M  V30 5 2 3 6
M  V30 6 1 3 7
M  V30 7 1 4 8
M  V30 8 1 4 9
M  V30 9 2 5 10
M  V30 10 1 6 11
M  V30 11 2 7 12
M  V30 12 1 8 13
M  V30 13 2 9 14
M  V30 14 2 11 15
M  V30 15 1 13 16
M  V30 16 1 14 17
M  V30 17 1 16 18
M  V30 18 1 17 19
M  V30 19 1 17 20
M  V30 20 1 17 21
M  V30 21 1 18 22
M  V30 22 1 22 23
M  V30 23 1 22 24
M  V30 24 1 23 25
M  V30 25 1 24 26
M  V30 26 1 25 27
M  V30 27 1 27 28
M  V30 28 1 28 29
M  V30 29 1 29 30
M  V30 30 1 30 31
M  V30 31 2 31 32
M  V30 32 1 31 33
M  V30 33 1 33 34
M  V30 34 1 34 35
M  V30 35 1 35 36
M  V30 36 1 36 37
M  V30 37 1 37 38
M  V30 38 1 6 8
M  V30 39 1 10 14
M  V30 40 1 12 15
M  V30 41 1 26 27
M  V30 42 1 5 39
M  V30 43 1 7 40
M  V30 44 1 9 41
M  V30 45 1 10 42
M  V30 46 1 11 43
M  V30 47 1 12 44
M  V30 48 1 13 45
M  V30 49 1 13 46
M  V30 50 1 15 47
M  V30 51 1 16 48
M  V30 52 1 16 49
M  V30 53 1 18 50
M  V30 54 1 18 51
M  V30 55 1 23 52
M  V30 56 1 23 53
M  V30 57 1 24 54
M  V30 58 1 24 55
M  V30 59 1 25 56
M  V30 60 1 25 57
M  V30 61 1 26 58
M  V30 62 1 26 59
M  V30 63 1 28 60
M  V30 64 1 28 61
M  V30 65 1 29 62
M  V30 66 1 29 63
M  V30 67 1 33 64
M  V30 68 1 33 65
M  V30 69 1 34 66
M  V30 70 1 34 67
M  V30 71 1 35 68
M  V30 72 1 35 69
M  V30 73 1 36 70
M  V30 74 1 36 71
M  V30 75 1 37 72
M  V30 76 1 37 73
M  V30 77 1 38 74
M  V30 78 1 38 75
M  V30 79 1 38 76
M  V30 END BOND
M  V30 END CTAB
M  END
>  <level_0>
1520

>  <index>
1520

>  <NO.>
1521

>  <Name>
fluphenazine-enanthate

>  <SMILES>
CCCCCCC(=O)OCCN1CCN(CCCN2c3ccccc3Sc3ccc(C(F)(F)F)cc32)CC1

>  <logBB>


>  <Class>
1

>  <MW>
549.26

>  <nHBAcc>
6

>  <nHBDon>
0

>  <SLogP>
6.83

>  <TopoPSA>
36.02

>  <MMFF94 Energy>
158.8

$$$$
CCCCCCC(C)(C)c1cc(O)c2c(c1)OC(C)(C)[C@@H]1CCC(=O)C[C@@H]21
Actelion Java MolfileCreator 2.0

  0  0  0  0  0  0              0 V3000
M  V30 BEGIN CTAB
M  V30 COUNTS 63 65 0 0 0
M  V30 BEGIN ATOM
M  V30 1 O 5.8688 -1.9797 2.1382 0
M  V30 2 C 4.8173 -2.228 1.5485 0
M  V30 3 C 3.7223 -1.1933 1.4024 0
M  V30 4 C 4.6195 -3.5397 0.8291 0
M  V30 5 C 2.3489 -1.8156 1.716 0 CFG=1
M  V30 6 C 3.2227 -4.0937 1.0796 0
M  V30 7 C 1.1742 -0.8627 1.6041 0
M  V30 8 C 2.1482 -3.0357 0.7779 0 CFG=1
M  V30 9 C 0.0092 -1.255 0.9406 0
M  V30 10 C 1.1567 0.3998 2.2097 0
M  V30 11 C 0.6914 -3.5463 0.8423 0
M  V30 12 O -0.1954 -2.498 0.4064 0
M  V30 13 C -1.07 -0.3749 0.7824 0
M  V30 14 O 2.208 0.7767 2.9986 0
M  V30 15 C 0.0743 1.2808 2.0663 0
M  V30 16 C 0.2447 -4.0519 2.2244 0
M  V30 17 C 0.4628 -4.6814 -0.1724 0
M  V30 18 C -1.0591 0.9198 1.3269 0
M  V30 19 C -2.2642 1.8568 1.1271 0
M  V30 20 C -2.6091 2.0235 -0.387 0
M  V30 21 C -3.4915 1.2274 1.8326 0
M  V30 22 C -2.0741 3.2607 1.7505 0
M  V30 23 C -1.4959 2.6446 -1.2443 0
M  V30 24 C -1.909 2.7105 -2.7184 0
M  V30 25 C -0.8051 3.3347 -3.5752 0
M  V30 26 C -1.1226 3.3277 -5.072 0
M  V30 27 C -2.3079 4.2045 -5.4457 0
M  V30 28 H 3.9732 -0.3769 2.0832 0
M  V30 29 H 3.7573 -0.7927 0.3826 0
M  V30 30 H 4.7837 -3.3667 -0.24 0
M  V30 31 H 5.3703 -4.2569 1.177 0
M  V30 32 H 2.3662 -2.1731 2.7557 0
M  V30 33 H 3.144 -4.4219 2.1231 0
M  V30 34 H 3.0921 -4.9803 0.4517 0
M  V30 35 H 2.3082 -2.6837 -0.2544 0
M  V30 36 H -1.9382 -0.7341 0.2333 0
M  V30 37 H 2.0349 1.6577 3.3691 0
M  V30 38 H 0.1281 2.2516 2.5479 0
M  V30 39 H -0.8081 -4.3574 2.198 0
M  V30 40 H 0.309 -3.2758 2.9931 0
M  V30 41 H 0.8391 -4.9096 2.5542 0
M  V30 42 H 0.9881 -5.6006 0.1031 0
M  V30 43 H -0.605 -4.9177 -0.2557 0
M  V30 44 H 0.7873 -4.3798 -1.1751 0
M  V30 45 H -2.8852 1.0535 -0.8199 0
M  V30 46 H -3.5066 2.6509 -0.4803 0
M  V30 47 H -3.2931 1.0587 2.8979 0
M  V30 48 H -3.7701 0.2624 1.3946 0
M  V30 49 H -4.3688 1.8807 1.7567 0
M  V30 50 H -2.9373 3.9041 1.542 0
M  V30 51 H -1.9729 3.2047 2.8411 0
M  V30 52 H -1.1855 3.7701 1.363 0
M  V30 53 H -0.5757 2.0566 -1.1566 0
M  V30 54 H -1.2708 3.6577 -0.8939 0
M  V30 55 H -2.8301 3.2975 -2.8064 0
M  V30 56 H -2.1295 1.7 -3.083 0
M  V30 57 H 0.127 2.7772 -3.4206 0
M  V30 58 H -0.6164 4.3632 -3.2442 0
M  V30 59 H -0.24 3.6859 -5.6153 0
M  V30 60 H -1.3073 2.3013 -5.4097 0
M  V30 61 H -2.4235 4.2352 -6.5339 0
M  V30 62 H -3.2411 3.8188 -5.0251 0
M  V30 63 H -2.1654 5.2303 -5.0913 0
M  V30 END ATOM
M  V30 BEGIN BOND
M  V30 1 2 1 2
M  V30 2 1 2 3
M  V30 3 1 2 4
M  V30 4 1 3 5
M  V30 5 1 4 6
M  V30 6 1 5 7
M  V30 7 1 5 8
M  V30 8 2 7 9
M  V30 9 1 7 10
M  V30 10 1 8 11
M  V30 11 1 9 12
M  V30 12 1 9 13
M  V30 13 1 10 14
M  V30 14 2 10 15
M  V30 15 1 11 16
M  V30 16 1 11 17
M  V30 17 2 13 18
M  V30 18 1 18 19
M  V30 19 1 19 20
M  V30 20 1 19 21
M  V30 21 1 19 22
M  V30 22 1 20 23
M  V30 23 1 23 24
M  V30 24 1 24 25
M  V30 25 1 25 26
M  V30 26 1 26 27
M  V30 27 1 6 8
M  V30 28 1 11 12
M  V30 29 1 15 18
M  V30 30 1 3 28
M  V30 31 1 3 29
M  V30 32 1 4 30
M  V30 33 1 4 31
M  V30 34 1 5 32
M  V30 35 1 6 33
M  V30 36 1 6 34
M  V30 37 1 8 35
M  V30 38 1 13 36
M  V30 39 1 14 37
M  V30 40 1 15 38
M  V30 41 1 16 39
M  V30 42 1 16 40
M  V30 43 1 16 41
M  V30 44 1 17 42
M  V30 45 1 17 43
M  V30 46 1 17 44
M  V30 47 1 20 45
M  V30 48 1 20 46
M  V30 49 1 21 47
M  V30 50 1 21 48
M  V30 51 1 21 49
M  V30 52 1 22 50
M  V30 53 1 22 51
M  V30 54 1 22 52
M  V30 55 1 23 53
M  V30 56 1 23 54
M  V30 57 1 24 55
M  V30 58 1 24 56
M  V30 59 1 25 57
M  V30 60 1 25 58
M  V30 61 1 26 59
M  V30 62 1 26 60
M  V30 63 1 27 61
M  V30 64 1 27 62
M  V30 65 1 27 63
M  V30 END BOND
M  V30 BEGIN COLLECTION
M  V30 MDLV30/STEABS ATOMS=(2 5 8)
M  V30 END COLLECTION
M  V30 END CTAB
M  END
>  <level_0>
1521

>  <index>
1521

>  <NO.>
1522

>  <Name>
nabilone

>  <SMILES>
CCCCCCC(C)(C)c1cc(O)c2c(c1)OC(C)(C)[C@@H]1CCC(=O)C[C@@H]21

>  <logBB>


>  <Class>
1

>  <MW>
372.27

>  <nHBAcc>
3

>  <nHBDon>
1

>  <SLogP>
6.26

>  <TopoPSA>
46.53

>  <MMFF94 Energy>
48.691

$$$$
CCCCCCCCCC(=O)N[C@H]1[C@H](Oc2c3cc4cc2Oc2ccc(cc2Cl)[C@@H](O[C@@H]2O[C@H](CO)[C@@H](O)[C@H](O)[C@H]2NC(C)=O)[C@@H]2NC(=O)[C@H](NC(=O)[C@@H]4NC(=O)[C@H]4NC(=O)[C@@H](Cc5ccc(c(Cl)c5)O3)NC(=O)[C@H](N)c3ccc(O)c(c3)Oc3cc(O)cc4c3)c3ccc(O)c(c3)-c3c(O[C@H]4O[C@H](CO)[C@@H](O)[C@H](O)[C@@H]4O)cc(O)cc3[C@H](C(=O)O)NC2=O)O[C@H](CO)[C@@H](O)[C@@H]1O
Actelion Java MolfileCreator 2.0

  0  0  0  0  0  0              0 V3000
M  V30 BEGIN CTAB
M  V30 COUNTS 229 242 0 0 0
M  V30 BEGIN ATOM
M  V30 1 Cl 3.9558 2.7436 0.5644 0
M  V30 2 C 3.7226 1.1105 1.0597 0
M  V30 3 C 3.2626 0.771 2.3331 0
M  V30 4 C 3.9134 0.1037 0.1139 0
M  V30 5 O 2.7714 1.7221 3.2078 0
M  V30 6 C 3.1558 -0.5706 2.7098 0
M  V30 7 C 3.6113 -1.236 0.4244 0
M  V30 8 C 1.4706 2.1157 2.9123 0
M  V30 9 C 3.2915 -1.5667 1.7468 0
M  V30 10 C 3.477 -2.2423 -0.716 0 CFG=1
M  V30 11 C 1.171 3.489 2.858 0
M  V30 12 C 0.4741 1.1506 2.6704 0
M  V30 13 O 3.4208 -3.5821 -0.2041 0
M  V30 14 C 2.1561 -1.9241 -1.4859 0 CFG=2
M  V30 15 O 2.1904 4.3643 3.1298 0
M  V30 16 C -0.1061 3.8844 2.4372 0
M  V30 17 C -0.7808 1.5276 2.2145 0
M  V30 18 C 4.5274 -4.3848 -0.6132 0 CFG=2
M  V30 19 N 0.9409 -2.3512 -0.7572 0
M  V30 20 C 2.2858 -2.4389 -2.934 0
M  V30 21 C 1.9111 5.2857 4.1916 0 CFG=2
M  V30 22 O -0.4337 5.2371 2.3696 0
M  V30 23 C -1.0364 2.8924 2.0705 0
M  V30 24 C -1.8541 0.5057 1.9152 0 CFG=1
M  V30 25 O 4.3613 -4.6833 -2.0046 0
M  V30 26 C 4.6023 -5.7022 0.2151 0 CFG=2
M  V30 27 C -0.2142 -1.6747 -0.4598 0
M  V30 28 O 3.2963 -2.2243 -3.6044 0
M  V30 29 N 1.1678 -3.0258 -3.4789 0
M  V30 30 O 1.663 6.5784 3.6189 0
M  V30 31 C 3.1344 5.3642 5.15 0 CFG=2
M  V30 32 C -1.7901 5.5101 2.2997 0
M  V30 33 N -2.9925 0.7525 2.7988 0
M  V30 34 C -2.4438 0.7028 0.4856 0
M  V30 35 C 5.4679 -5.4097 -2.553 0 CFG=1
M  V30 36 N 4.8282 -5.488 1.6531 0
M  V30 37 C 5.7406 -6.5674 -0.3616 0 CFG=2
M  V30 38 O -1.0662 -2.2723 0.2038 0
M  V30 39 C -0.4421 -0.1807 -0.8869 0 CFG=2
M  V30 40 C 1.1133 -3.3589 -4.9031 0 CFG=2
M  V30 41 C 1.3189 7.5691 4.5955 0 CFG=1
M  V30 42 N 3.4418 4.0795 5.7976 0
M  V30 43 C 2.8514 6.442 6.2142 0 CFG=2
M  V30 44 C -2.6236 5.3735 3.4164 0
M  V30 45 C -2.3369 5.7277 1.0302 0
M  V30 46 C -3.8751 -0.2428 3.1647 0
M  V30 47 O -3.5191 1.3067 0.3108 0
M  V30 48 N -1.8121 0.2881 -0.6352 0
M  V30 49 C 5.5675 -6.7789 -1.8689 0 CFG=2
M  V30 50 C 5.2677 -5.5217 -4.0706 0
M  V30 51 C 3.8036 -5.2311 2.5304 0
M  V30 52 O 5.7976 -7.8391 0.3 0
M  V30 53 C -0.2209 0.0232 -2.3786 0
M  V30 54 C -0.285 -3.2073 -5.5171 0
M  V30 55 C 1.7523 -4.7472 -5.0088 0
M  V30 56 C 2.4837 7.7833 5.5654 0 CFG=2
M  V30 57 C 0.9724 8.8455 3.8238 0
M  V30 58 C 4.4927 3.2869 5.3879 0
M  V30 59 O 3.9869 6.6347 7.0707 0
M  V30 60 Cl -1.9911 5.1811 5.0093 0
M  V30 61 C -4.0038 5.2788 3.2307 0
M  V30 62 C -3.7182 5.6257 0.8516 0
M  V30 63 O -3.5149 -1.3902 3.3973 0
M  V30 64 C -5.3441 0.2693 3.2775 0 CFG=1
M  V30 65 O 6.6844 -7.5346 -2.3461 0
M  V30 66 O 4.2353 -6.4485 -4.4114 0
M  V30 67 O 2.6283 -5.1175 2.2017 0
M  V30 68 C 4.2447 -5.1136 3.9649 0
M  V30 69 C -0.8076 -0.8731 -3.2833 0
M  V30 70 C 0.544 1.0803 -2.8814 0
M  V30 71 C -0.9929 -1.9658 -5.471 0
M  V30 72 C -0.8743 -4.2727 -6.2234 0
M  V30 73 O 1.6821 -5.6438 -4.176 0
M  V30 74 O 2.4737 -4.9288 -6.1364 0
M  V30 75 O 2.1529 8.6987 6.6158 0
M  V30 76 O -0.0934 8.5786 2.9121 0
M  V30 77 O 5.2544 3.5818 4.4746 0
M  V30 78 C 4.6283 2.0173 6.2107 0
M  V30 79 C -4.5555 5.3382 1.9401 0
M  V30 80 N -5.487 1.4382 2.3878 0
M  V30 81 C -6.3638 -0.7413 2.7769 0
M  V30 82 C -0.5055 -0.8448 -4.6522 0
M  V30 83 C 0.7852 1.1734 -4.255 0
M  V30 84 C -2.2247 -1.835 -6.1555 0
M  V30 85 C -2.1115 -4.1259 -6.8474 0
M  V30 86 C 5.5099 0.9797 5.5192 0
M  V30 87 C -6.0255 5.0399 1.7281 0
M  V30 88 C -6.0349 2.6508 2.7112 0
M  V30 89 C -6.1974 -1.3071 1.5008 0
M  V30 90 C -7.5657 -0.9653 3.4598 0
M  V30 91 C 0.287 0.2038 -5.1269 0
M  V30 92 O -2.888 -0.6303 -6.0769 0
M  V30 93 C -2.7939 -2.9192 -6.8217 0
M  V30 94 O -2.6215 -5.2158 -7.4888 0
M  V30 95 C 5.5626 -0.3385 6.2944 0
M  V30 96 C -6.3456 3.5497 1.4792 0 CFG=2
M  V30 97 O -6.3183 2.9608 3.8636 0
M  V30 98 C -7.2562 -1.9528 0.8581 0
M  V30 99 C -8.5756 -1.7124 2.8504 0
M  V30 100 O 0.6292 0.3349 -6.4431 0
M  V30 101 C -3.204 -0.0739 -7.3647 0 CFG=1
M  V30 102 C 5.9855 -1.5318 5.4313 0
M  V30 103 N -5.7527 3.0301 0.2279 0
M  V30 104 O -7.1972 -2.3358 -0.4678 0
M  V30 105 C -8.4372 -2.1946 1.551 0
M  V30 106 O -9.7579 -1.9519 3.4887 0
M  V30 107 O -4.5627 -0.364 -7.7381 0
M  V30 108 C -2.9136 1.4428 -7.3451 0 CFG=1
M  V30 109 C 7.3503 -1.3676 4.7612 0
M  V30 110 C -6.5081 2.8095 -0.9062 0
M  V30 111 C -6.4455 -1.5347 -1.3087 0
M  V30 112 C -5.5459 0.296 -6.9179 0 CFG=1
M  V30 113 O -2.9146 1.9733 -8.6826 0
M  V30 114 C -3.961 2.1911 -6.5208 0 CFG=2
M  V30 115 C 7.6724 -2.5755 3.8764 0
M  V30 116 O -7.6983 3.117 -0.9754 0
M  V30 117 C -5.7547 2.1703 -2.1136 0 CFG=2
M  V30 118 C -5.5041 -2.1569 -2.1241 0
M  V30 119 C -6.5893 -0.1378 -1.3444 0
M  V30 120 C -5.375 1.8166 -6.972 0 CFG=2
M  V30 121 C -6.9271 -0.1186 -7.4383 0
M  V30 122 O -3.7679 3.6076 -6.6852 0
M  V30 123 C 9.0252 -2.4099 3.1813 0
M  V30 124 N -6.3878 2.6256 -3.378 0
M  V30 125 C -5.7077 0.6499 -2.1029 0
M  V30 126 O -5.3534 -3.5133 -2.1342 0
M  V30 127 C -4.6691 -1.402 -2.9334 0
M  V30 128 O -6.3289 2.5215 -6.1743 0
M  V30 129 O -7.03 -1.5443 -7.436 0
M  V30 130 C 9.4047 -3.6071 2.3072 0
M  V30 131 C -4.757 -0.0076 -2.9082 0
M  V30 132 C 8.5126 -3.7699 1.0859 0
M  V30 133 H 4.2089 0.3763 -0.8983 0
M  V30 134 H 2.8376 -0.833 3.716 0
M  V30 135 H 3.0531 -2.5916 2.0202 0
M  V30 136 H 4.3514 -2.1105 -1.3668 0
M  V30 137 H 0.675 0.093 2.8147 0
M  V30 138 H 2.0884 -0.8407 -1.6068 0
M  V30 139 H 5.4543 -3.8139 -0.4615 0
M  V30 140 H 0.9858 -3.2866 -0.3551 0
M  V30 141 H 1.0324 4.9648 4.7683 0
M  V30 142 H -2.0113 3.1694 1.6821 0
M  V30 143 H -1.5066 -0.5235 2.0308 0
M  V30 144 H 3.6522 -6.2443 0.1202 0
M  V30 145 H 0.4334 -3.3556 -2.8633 0
M  V30 146 H 4.0181 5.6674 4.5742 0
M  V30 147 H -3.384 1.6865 2.7891 0
M  V30 148 H 6.3846 -4.8268 -2.3921 0
M  V30 149 H 5.738 -5.7251 2.0294 0
M  V30 150 H 6.7105 -6.0917 -0.1667 0
M  V30 151 H 0.2499 0.4321 -0.3007 0
M  V30 152 H 1.7775 -2.67 -5.4421 0
M  V30 153 H 0.4176 7.2406 5.1284 0
M  V30 154 H 2.8938 3.7905 6.5967 0
M  V30 155 H 2.036 6.1131 6.8722 0
M  V30 156 H -1.6843 5.8689 0.1723 0
M  V30 157 H -2.3905 0.4118 -1.4561 0
M  V30 158 H 4.6645 -7.3809 -2.0301 0
M  V30 159 H 4.9953 -4.551 -4.4972 0
M  V30 160 H 6.1862 -5.8657 -4.5555 0
M  V30 161 H 6.3917 -8.392 -0.246 0
M  V30 162 H 3.3659 8.1781 5.0456 0
M  V30 163 H 0.6536 9.6496 4.493 0
M  V30 164 H 1.826 9.1934 3.2328 0
M  V30 165 H 3.7759 7.4205 7.6123 0
M  V30 166 H -4.6493 5.1033 4.0911 0
M  V30 167 H -4.1321 5.7223 -0.1506 0
M  V30 168 H -5.5313 0.5596 4.3165 0
M  V30 169 H 6.4223 -7.9017 -3.2134 0
M  V30 170 H 3.4559 -6.2229 -3.8522 0
M  V30 171 H 5.3086 -4.8723 4.0382 0
M  V30 172 H 4.0559 -6.0614 4.4756 0
M  V30 173 H 3.677 -4.3154 4.4515 0
M  V30 174 H -1.4455 -1.6758 -2.9068 0
M  V30 175 H 0.9788 1.8235 -2.2153 0
M  V30 176 H -0.3897 -5.2441 -6.3027 0
M  V30 177 H 2.9534 -5.7788 -5.9927 0
M  V30 178 H 2.21 9.603 6.2569 0
M  V30 179 H 0.1543 7.7459 2.4612 0
M  V30 180 H 3.6268 1.602 6.3763 0
M  V30 181 H 5.0487 2.286 7.1864 0
M  V30 182 H -5.2661 1.2696 1.4103 0
M  V30 183 H 1.3951 1.9848 -4.6464 0
M  V30 184 H 6.5249 1.3788 5.4019 0
M  V30 185 H 5.1298 0.8016 4.5093 0
M  V30 186 H -6.5853 5.3974 2.6022 0
M  V30 187 H -6.3861 5.6363 0.8797 0
M  V30 188 H -5.2569 -1.1647 0.9721 0
M  V30 189 H -7.7207 -0.5235 4.4405 0
M  V30 190 H -3.7645 -2.8225 -7.2962 0
M  V30 191 H -3.5253 -5.0173 -7.7879 0
M  V30 192 H 4.5732 -0.5646 6.7109 0
M  V30 193 H 6.2461 -0.2332 7.1454 0
M  V30 194 H -7.4361 3.4761 1.3727 0
M  V30 195 H 0.3346 -0.452 -6.9311 0
M  V30 196 H -2.5719 -0.5137 -8.1485 0
M  V30 197 H 5.2216 -1.703 4.6636 0
M  V30 198 H 5.9974 -2.4296 6.0617 0
M  V30 199 H -4.7679 2.7622 0.2206 0
M  V30 200 H -9.2581 -2.7232 1.0765 0
M  V30 201 H -9.7085 -1.5871 4.3879 0
M  V30 202 H -1.9177 1.6388 -6.9337 0
M  V30 203 H 8.1247 -1.2476 5.5279 0
M  V30 204 H 7.362 -0.4643 4.141 0
M  V30 205 H -5.4481 -0.0779 -5.8919 0
M  V30 206 H -2.9112 2.9463 -8.5655 0
M  V30 207 H -3.8349 1.9785 -5.4538 0
M  V30 208 H 6.8784 -2.6905 3.1298 0
M  V30 209 H 7.6805 -3.4873 4.4854 0
M  V30 210 H -4.7269 2.5546 -2.0927 0
M  V30 211 H -7.3726 0.3227 -0.7454 0
M  V30 212 H -5.5223 2.1702 -8.0002 0
M  V30 213 H -7.7311 0.2838 -6.8153 0
M  V30 214 H -7.0772 0.2148 -8.4705 0
M  V30 215 H -4.6188 4.0202 -6.4303 0
M  V30 216 H 9.8034 -2.2786 3.9435 0
M  V30 217 H 9.0221 -1.4977 2.5723 0
M  V30 218 H -7.3723 2.3307 -3.3063 0
M  V30 219 H -6.4692 3.6461 -3.3184 0
M  V30 220 H -5.9941 -3.8698 -1.4902 0
M  V30 221 H -3.9465 -1.899 -3.573 0
M  V30 222 H -6.2022 2.2947 -5.2239 0
M  V30 223 H -6.2305 -1.8555 -7.8999 0
M  V30 224 H 10.4383 -3.4743 1.9662 0
M  V30 225 H 9.3824 -4.5274 2.9022 0
M  V30 226 H -4.0801 0.5686 -3.5346 0
M  V30 227 H 8.8827 -4.5853 0.4561 0
M  V30 228 H 7.4848 -4.011 1.3693 0
M  V30 229 H 8.4992 -2.8562 0.4834 0
M  V30 END ATOM
M  V30 BEGIN BOND
M  V30 1 1 1 2
M  V30 2 2 2 3
M  V30 3 1 2 4
M  V30 4 1 3 5
M  V30 5 1 3 6
M  V30 6 2 4 7
M  V30 7 1 5 8
M  V30 8 2 6 9
M  V30 9 1 7 10
M  V30 10 2 8 11
M  V30 11 1 8 12
M  V30 12 1 10 13
M  V30 13 1 10 14
M  V30 14 1 11 15
M  V30 15 1 11 16
M  V30 16 2 12 17
M  V30 17 1 13 18
M  V30 18 1 14 19
M  V30 19 1 14 20
M  V30 20 1 15 21
M  V30 21 1 16 22
M  V30 22 2 16 23
M  V30 23 1 17 24
M  V30 24 1 18 25
M  V30 25 1 18 26
M  V30 26 1 19 27
M  V30 27 2 20 28
M  V30 28 1 20 29
M  V30 29 1 21 30
M  V30 30 1 21 31
M  V30 31 1 22 32
M  V30 32 1 24 33
M  V30 33 1 24 34
M  V30 34 1 25 35
M  V30 35 1 26 36
M  V30 36 1 26 37
M  V30 37 2 27 38
M  V30 38 1 27 39
M  V30 39 1 29 40
M  V30 40 1 30 41
M  V30 41 1 31 42
M  V30 42 1 31 43
M  V30 43 2 32 44
M  V30 44 1 32 45
M  V30 45 1 33 46
M  V30 46 2 34 47
M  V30 47 1 34 48
M  V30 48 1 35 49
M  V30 49 1 35 50
M  V30 50 1 36 51
M  V30 51 1 37 52
M  V30 52 1 39 53
M  V30 53 1 40 54
M  V30 54 1 40 55
M  V30 55 1 41 56
M  V30 56 1 41 57
M  V30 57 1 42 58
M  V30 58 1 43 59
M  V30 59 1 44 60
M  V30 60 1 44 61
M  V30 61 2 45 62
M  V30 62 2 46 63
M  V30 63 1 46 64
M  V30 64 1 49 65
M  V30 65 1 50 66
M  V30 66 2 51 67
M  V30 67 1 51 68
M  V30 68 2 53 69
M  V30 69 1 53 70
M  V30 70 2 54 71
M  V30 71 1 54 72
M  V30 72 2 55 73
M  V30 73 1 55 74
M  V30 74 1 56 75
M  V30 75 1 57 76
M  V30 76 2 58 77
M  V30 77 1 58 78
M  V30 78 2 61 79
M  V30 79 1 64 80
M  V30 80 1 64 81
M  V30 81 1 69 82
M  V30 82 2 70 83
M  V30 83 1 71 84
M  V30 84 2 72 85
M  V30 85 1 78 86
M  V30 86 1 79 87
M  V30 87 1 80 88
M  V30 88 2 81 89
M  V30 89 1 81 90
M  V30 90 2 82 91
M  V30 91 1 84 92
M  V30 92 2 84 93
M  V30 93 1 85 94
M  V30 94 1 86 95
M  V30 95 1 87 96
M  V30 96 2 88 97
M  V30 97 1 89 98
M  V30 98 2 90 99
M  V30 99 1 91 100
M  V30 100 1 92 101
M  V30 101 1 95 102
M  V30 102 1 96 103
M  V30 103 1 98 104
M  V30 104 2 98 105
M  V30 105 1 99 106
M  V30 106 1 101 107
M  V30 107 1 101 108
M  V30 108 1 102 109
M  V30 109 1 103 110
M  V30 110 1 104 111
M  V30 111 1 107 112
M  V30 112 1 108 113
M  V30 113 1 108 114
M  V30 114 1 109 115
M  V30 115 2 110 116
M  V30 116 1 110 117
M  V30 117 2 111 118
M  V30 118 1 111 119
M  V30 119 1 112 120
M  V30 120 1 112 121
M  V30 121 1 114 122
M  V30 122 1 115 123
M  V30 123 1 117 124
M  V30 124 1 117 125
M  V30 125 1 118 126
M  V30 126 1 118 127
M  V30 127 1 120 128
M  V30 128 1 121 129
M  V30 129 1 123 130
M  V30 130 1 125 131
M  V30 131 1 130 132
M  V30 132 1 7 9
M  V30 133 1 17 23
M  V30 134 1 37 49
M  V30 135 1 39 48
M  V30 136 1 43 56
M  V30 137 1 62 79
M  V30 138 1 71 82
M  V30 139 1 83 91
M  V30 140 1 85 93
M  V30 141 1 88 96
M  V30 142 1 99 105
M  V30 143 1 114 120
M  V30 144 2 119 125
M  V30 145 2 127 131
M  V30 146 1 4 133
M  V30 147 1 6 134
M  V30 148 1 9 135
M  V30 149 1 10 136
M  V30 150 1 12 137
M  V30 151 1 14 138
M  V30 152 1 18 139
M  V30 153 1 19 140
M  V30 154 1 21 141
M  V30 155 1 23 142
M  V30 156 1 24 143
M  V30 157 1 26 144
M  V30 158 1 29 145
M  V30 159 1 31 146
M  V30 160 1 33 147
M  V30 161 1 35 148
M  V30 162 1 36 149
M  V30 163 1 37 150
M  V30 164 1 39 151
M  V30 165 1 40 152
M  V30 166 1 41 153
M  V30 167 1 42 154
M  V30 168 1 43 155
M  V30 169 1 45 156
M  V30 170 1 48 157
M  V30 171 1 49 158
M  V30 172 1 50 159
M  V30 173 1 50 160
M  V30 174 1 52 161
M  V30 175 1 56 162
M  V30 176 1 57 163
M  V30 177 1 57 164
M  V30 178 1 59 165
M  V30 179 1 61 166
M  V30 180 1 62 167
M  V30 181 1 64 168
M  V30 182 1 65 169
M  V30 183 1 66 170
M  V30 184 1 68 171
M  V30 185 1 68 172
M  V30 186 1 68 173
M  V30 187 1 69 174
M  V30 188 1 70 175
M  V30 189 1 72 176
M  V30 190 1 74 177
M  V30 191 1 75 178
M  V30 192 1 76 179
M  V30 193 1 78 180
M  V30 194 1 78 181
M  V30 195 1 80 182
M  V30 196 1 83 183
M  V30 197 1 86 184
M  V30 198 1 86 185
M  V30 199 1 87 186
M  V30 200 1 87 187
M  V30 201 1 89 188
M  V30 202 1 90 189
M  V30 203 1 93 190
M  V30 204 1 94 191
M  V30 205 1 95 192
M  V30 206 1 95 193
M  V30 207 1 96 194
M  V30 208 1 100 195
M  V30 209 1 101 196
M  V30 210 1 102 197
M  V30 211 1 102 198
M  V30 212 1 103 199
M  V30 213 1 105 200
M  V30 214 1 106 201
M  V30 215 1 108 202
M  V30 216 1 109 203
M  V30 217 1 109 204
M  V30 218 1 112 205
M  V30 219 1 113 206
M  V30 220 1 114 207
M  V30 221 1 115 208
M  V30 222 1 115 209
M  V30 223 1 117 210
M  V30 224 1 119 211
M  V30 225 1 120 212
M  V30 226 1 121 213
M  V30 227 1 121 214
M  V30 228 1 122 215
M  V30 229 1 123 216
M  V30 230 1 123 217
M  V30 231 1 124 218
M  V30 232 1 124 219
M  V30 233 1 126 220
M  V30 234 1 127 221
M  V30 235 1 128 222
M  V30 236 1 129 223
M  V30 237 1 130 224
M  V30 238 1 130 225
M  V30 239 1 131 226
M  V30 240 1 132 227
M  V30 241 1 132 228
M  V30 242 1 132 229
M  V30 END BOND
M  V30 BEGIN COLLECTION
M  V30 MDLV30/STEABS ATOMS=(23 10 14 18 21 24 26 31 35 37 39 40 41 43 49 56 64 96 101 108 112 114 117 120)
M  V30 END COLLECTION
M  V30 END CTAB
M  END
>  <level_0>
1523

>  <index>
1523

>  <NO.>
1524

>  <Name>
teichomycin

>  <SMILES>
CCCCCCCCCC(=O)N[C@H]1[C@H](Oc2c3cc4cc2Oc2ccc(cc2Cl)[C@@H](O[C@@H]2O[C@H](CO)[C@@H](O)[C@H](O)[C@H]2NC(C)=O)[C@@H]2NC(=O)[C@H](NC(=O)[C@@H]4NC(=O)[C@H]4NC(=O)[C@@H](Cc5ccc(c(Cl)c5)O3)NC(=O)[C@H](N)c3ccc(O)c(c3)Oc3cc(O)cc4c3)c3ccc(O)c(c3)-c3c(O[C@H]4O[C@H](CO)[C@@H](O)[C@H](O)[C@@H]4O)cc(O)cc3[C@H](C(=O)O)NC2=O)O[C@H](CO)[C@@H](O)[C@@H]1O

>  <logBB>


>  <Class>
-1

>  <MW>
1877.56

>  <nHBAcc>
33

>  <nHBDon>
24

>  <SLogP>
1.16

>  <TopoPSA>
662.41

>  <MMFF94 Energy>
604.65

$$$$
CCCCCCCCCC(=O)OC1(c2ccc(Br)cc2)CCN(CCCC(=O)c2ccc(F)cc2)CC1
Actelion Java MolfileCreator 2.0

  0  0  0  0  0  0              0 V3000
M  V30 BEGIN CTAB
M  V30 COUNTS 78 80 0 0 0
M  V30 BEGIN ATOM
M  V30 1 Br -2.5543 -8.2398 -1.5959 0
M  V30 2 C -2.3244 -6.4955 -0.9061 0
M  V30 3 C -2.5401 -5.3933 -1.7253 0
M  V30 4 C -1.9361 -6.3193 0.4178 0
M  V30 5 C -2.3674 -4.1054 -1.2111 0
M  V30 6 C -1.7646 -5.0283 0.9302 0
M  V30 7 C -1.9816 -3.8949 0.1292 0
M  V30 8 C -1.8011 -2.4603 0.6543 0
M  V30 9 O -0.9488 -1.7248 -0.2755 0
M  V30 10 C -1.2877 -2.3303 2.106 0
M  V30 11 C -3.1731 -1.7444 0.608 0
M  V30 12 C 0.3566 -2.0797 -0.4318 0
M  V30 13 C -1.2316 -0.8737 2.5614 0
M  V30 14 C -3.0958 -0.3065 1.1319 0
M  V30 15 O 0.9449 -2.9493 0.191 0
M  V30 16 C 0.9734 -1.2058 -1.4994 0
M  V30 17 N -2.563 -0.2524 2.4995 0
M  V30 18 C 2.4334 -1.5691 -1.7623 0
M  V30 19 C -2.4983 1.1234 3.0232 0
M  V30 20 C 3.0408 -0.6808 -2.8483 0
M  V30 21 C -3.8759 1.7709 3.2127 0
M  V30 22 C 4.5028 -1.0448 -3.1113 0
M  V30 23 C -3.7569 3.1094 3.9468 0
M  V30 24 C 5.1104 -0.1561 -4.1977 0
M  V30 25 C -5.1026 3.7981 4.1046 0
M  V30 26 C 6.5724 -0.5201 -4.4608 0
M  V30 27 O -6.1306 3.3565 3.5959 0
M  V30 28 C -5.1718 5.0646 4.8985 0
M  V30 29 C 7.1801 0.3684 -5.5472 0
M  V30 30 C -6.4295 5.657 5.0999 0
M  V30 31 C -4.0311 5.6753 5.4395 0
M  V30 32 C 8.6411 0.0046 -5.81 0
M  V30 33 C -6.5458 6.84 5.833 0
M  V30 34 C -4.1521 6.8599 6.1729 0
M  V30 35 C 9.249 0.8857 -6.8895 0
M  V30 36 C -5.4059 7.4302 6.3628 0
M  V30 37 F -5.5143 8.5646 7.0657 0
M  V30 38 H -2.8383 -5.5218 -2.7621 0
M  V30 39 H -1.7574 -7.1765 1.0615 0
M  V30 40 H -2.5317 -3.2575 -1.8735 0
M  V30 41 H -1.4464 -4.9362 1.9653 0
M  V30 42 H -1.9477 -2.8806 2.7909 0
M  V30 43 H -0.2908 -2.7654 2.2271 0
M  V30 44 H -3.5543 -1.6939 -0.4196 0
M  V30 45 H -3.9131 -2.3063 1.1945 0
M  V30 46 H -0.5043 -0.3119 1.9614 0
M  V30 47 H -0.87 -0.8628 3.5972 0
M  V30 48 H -4.1148 0.0937 1.1046 0
M  V30 49 H -2.4907 0.3082 0.4531 0
M  V30 50 H 0.904 -0.1634 -1.1688 0
M  V30 51 H 0.3913 -1.329 -2.4195 0
M  V30 52 H 2.503 -2.6218 -2.0635 0
M  V30 53 H 3.0116 -1.4676 -0.8354 0
M  V30 54 H -1.8773 1.7558 2.3752 0
M  V30 55 H -2.0092 1.0996 4.0059 0
M  V30 56 H 2.973 0.3704 -2.5432 0
M  V30 57 H 2.4635 -0.7866 -3.7748 0
M  V30 58 H -4.5307 1.0997 3.7827 0
M  V30 59 H -4.3552 1.9398 2.2418 0
M  V30 60 H 4.5704 -2.096 -3.4161 0
M  V30 61 H 5.08 -0.9389 -2.1847 0
M  V30 62 H -3.0936 3.775 3.3832 0
M  V30 63 H -3.3346 2.9327 4.9423 0
M  V30 64 H 5.0427 0.8951 -3.8928 0
M  V30 65 H 4.5331 -0.2619 -5.1242 0
M  V30 66 H 6.64 -1.5714 -4.7656 0
M  V30 67 H 7.1497 -0.4142 -3.5342 0
M  V30 68 H 7.1124 1.4199 -5.2425 0
M  V30 69 H 6.6028 0.2628 -6.4737 0
M  V30 70 H -7.3261 5.1977 4.6861 0
M  V30 71 H -3.0389 5.2558 5.305 0
M  V30 72 H 9.2235 0.1126 -4.8876 0
M  V30 73 H 8.7139 -1.0444 -6.1189 0
M  V30 74 H -7.516 7.3006 5.9915 0
M  V30 75 H -3.2767 7.3426 6.597 0
M  V30 76 H 10.2936 0.6084 -7.0612 0
M  V30 77 H 8.7086 0.7766 -7.8352 0
M  V30 78 H 9.221 1.9402 -6.597 0
M  V30 END ATOM
M  V30 BEGIN BOND
M  V30 1 1 1 2
M  V30 2 2 2 3
M  V30 3 1 2 4
M  V30 4 1 3 5
M  V30 5 2 4 6
M  V30 6 2 5 7
M  V30 7 1 7 8
M  V30 8 1 8 9
M  V30 9 1 8 10
M  V30 10 1 8 11
M  V30 11 1 9 12
M  V30 12 1 10 13
M  V30 13 1 11 14
M  V30 14 2 12 15
M  V30 15 1 12 16
M  V30 16 1 13 17
M  V30 17 1 16 18
M  V30 18 1 17 19
M  V30 19 1 18 20
M  V30 20 1 19 21
M  V30 21 1 20 22
M  V30 22 1 21 23
M  V30 23 1 22 24
M  V30 24 1 23 25
M  V30 25 1 24 26
M  V30 26 2 25 27
M  V30 27 1 25 28
M  V30 28 1 26 29
M  V30 29 2 28 30
M  V30 30 1 28 31
M  V30 31 1 29 32
M  V30 32 1 30 33
M  V30 33 2 31 34
M  V30 34 1 32 35
M  V30 35 2 33 36
M  V30 36 1 36 37
M  V30 37 1 6 7
M  V30 38 1 14 17
M  V30 39 1 34 36
M  V30 40 1 3 38
M  V30 41 1 4 39
M  V30 42 1 5 40
M  V30 43 1 6 41
M  V30 44 1 10 42
M  V30 45 1 10 43
M  V30 46 1 11 44
M  V30 47 1 11 45
M  V30 48 1 13 46
M  V30 49 1 13 47
M  V30 50 1 14 48
M  V30 51 1 14 49
M  V30 52 1 16 50
M  V30 53 1 16 51
M  V30 54 1 18 52
M  V30 55 1 18 53
M  V30 56 1 19 54
M  V30 57 1 19 55
M  V30 58 1 20 56
M  V30 59 1 20 57
M  V30 60 1 21 58
M  V30 61 1 21 59
M  V30 62 1 22 60
M  V30 63 1 22 61
M  V30 64 1 23 62
M  V30 65 1 23 63
M  V30 66 1 24 64
M  V30 67 1 24 65
M  V30 68 1 26 66
M  V30 69 1 26 67
M  V30 70 1 29 68
M  V30 71 1 29 69
M  V30 72 1 30 70
M  V30 73 1 31 71
M  V30 74 1 32 72
M  V30 75 1 32 73
M  V30 76 1 33 74
M  V30 77 1 34 75
M  V30 78 1 35 76
M  V30 79 1 35 77
M  V30 80 1 35 78
M  V30 END BOND
M  V30 END CTAB
M  END
>  <level_0>
1524

>  <index>
1524

>  <NO.>
1525

>  <Name>
bromperidol-decanoate

>  <SMILES>
CCCCCCCCCC(=O)OC1(c2ccc(Br)cc2)CCN(CCCC(=O)c2ccc(F)cc2)CC1

>  <logBB>


>  <Class>
1

>  <MW>
573.23

>  <nHBAcc>
4

>  <nHBDon>
0

>  <SLogP>
8.23

>  <TopoPSA>
46.61

>  <MMFF94 Energy>
44.723

$$$$
CCCCCCCCCC(=O)OC1(c2ccc(Cl)cc2)CCN(CCCC(=O)c2ccc(F)cc2)CC1
Actelion Java MolfileCreator 2.0

  0  0  0  0  0  0              0 V3000
M  V30 BEGIN CTAB
M  V30 COUNTS 78 80 0 0 0
M  V30 BEGIN ATOM
M  V30 1 Cl -3.7478 -7.987 -1.5935 0
M  V30 2 C -3.4465 -6.4053 -0.9879 0
M  V30 3 C -3.5811 -5.3051 -1.8269 0
M  V30 4 C -3.066 -6.2309 0.3385 0
M  V30 5 C -3.3355 -4.0216 -1.3312 0
M  V30 6 C -2.821 -4.9449 0.8336 0
M  V30 7 C -2.9561 -3.8135 0.0115 0
M  V30 8 C -2.694 -2.384 0.5169 0
M  V30 9 O -1.7879 -1.7142 -0.4112 0
M  V30 10 C -2.1884 -2.2609 1.972 0
M  V30 11 C -4.0212 -1.5895 0.4435 0
M  V30 12 C -0.5047 -2.1513 -0.5456 0
M  V30 13 C -2.0536 -0.8025 2.4126 0
M  V30 14 C -3.8577 -0.1532 0.946 0
M  V30 15 O 0.0106 -3.0682 0.0744 0
M  V30 16 C 0.1903 -1.3059 -1.5878 0
M  V30 17 N -3.3489 -0.1103 2.3251 0
M  V30 18 C 1.6355 -1.7471 -1.8106 0
M  V30 19 C -3.2481 1.2936 2.7724 0
M  V30 20 C 2.3237 -0.8845 -2.8689 0
M  V30 21 C -2.9985 1.4209 4.2836 0
M  V30 22 C 3.7709 -1.3264 -3.0917 0
M  V30 23 C -3.1269 2.8652 4.778 0
M  V30 24 C 4.4593 -0.4634 -4.1504 0
M  V30 25 C -1.9814 3.7613 4.334 0
M  V30 26 C 5.9066 -0.9053 -4.3732 0
M  V30 27 O -1.0317 3.3386 3.6782 0
M  V30 28 C -2.0143 5.2085 4.7137 0
M  V30 29 C 6.5951 -0.0423 -5.4319 0
M  V30 30 C -0.9785 6.0408 4.2578 0
M  V30 31 C -3.0358 5.7548 5.5044 0
M  V30 32 C 8.0413 -0.484 -5.6544 0
M  V30 33 C -0.9653 7.3986 4.5848 0
M  V30 34 C -3.0187 7.115 5.8295 0
M  V30 35 C 8.7293 0.3713 -6.7063 0
M  V30 36 C -1.9859 7.9229 5.3673 0
M  V30 37 F -1.9757 9.2243 5.6822 0
M  V30 38 H -3.8716 -5.4363 -2.8655 0
M  V30 39 H -2.9503 -7.0892 0.995 0
M  V30 40 H -3.4358 -3.1761 -2.0095 0
M  V30 41 H -2.5103 -4.8555 1.8714 0
M  V30 42 H -2.8847 -2.7637 2.6575 0
M  V30 43 H -1.2186 -2.7499 2.1085 0
M  V30 44 H -4.3876 -1.5319 -0.5892 0
M  V30 45 H -4.7999 -2.0959 1.0303 0
M  V30 46 H -1.2884 -0.2908 1.8152 0
M  V30 47 H -1.6991 -0.815 3.4486 0
M  V30 48 H -4.8438 0.3263 0.9046 0
M  V30 49 H -3.2012 0.4088 0.2687 0
M  V30 50 H 0.1688 -0.2634 -1.2509 0
M  V30 51 H -0.3704 -1.3908 -2.5254 0
M  V30 52 H 1.6564 -2.7995 -2.1202 0
M  V30 53 H 2.19 -1.6856 -0.8657 0
M  V30 54 H -4.1998 1.7971 2.5569 0
M  V30 55 H -2.4755 1.8227 2.202 0
M  V30 56 H 2.3045 0.1663 -2.5554 0
M  V30 57 H 1.7699 -0.9504 -3.8133 0
M  V30 58 H -2.0076 1.036 4.5484 0
M  V30 59 H -3.7361 0.8101 4.8196 0
M  V30 60 H 3.7899 -2.3772 -3.405 0
M  V30 61 H 4.3246 -1.2604 -2.1471 0
M  V30 62 H -3.1291 2.8487 5.8742 0
M  V30 63 H -4.0742 3.2891 4.4275 0
M  V30 64 H 4.4402 0.5875 -3.837 0
M  V30 65 H 3.9055 -0.5293 -5.0949 0
M  V30 66 H 5.9256 -1.9561 -4.6866 0
M  V30 67 H 6.4603 -0.8393 -3.4286 0
M  V30 68 H 6.5759 1.0086 -5.1187 0
M  V30 69 H 6.0413 -0.108 -6.3764 0
M  V30 70 H -0.1753 5.6341 3.6451 0
M  V30 71 H -3.8534 5.1487 5.8832 0
M  V30 72 H 8.6004 -0.4162 -4.7139 0
M  V30 73 H 8.0658 -1.5329 -5.9717 0
M  V30 74 H -0.1668 8.0454 4.2348 0
M  V30 75 H -3.8036 7.5497 6.4415 0
M  V30 76 H 9.762 0.0383 -6.8494 0
M  V30 77 H 8.2128 0.3004 -7.6688 0
M  V30 78 H 8.7504 1.4233 -6.404 0
M  V30 END ATOM
M  V30 BEGIN BOND
M  V30 1 1 1 2
M  V30 2 2 2 3
M  V30 3 1 2 4
M  V30 4 1 3 5
M  V30 5 2 4 6
M  V30 6 2 5 7
M  V30 7 1 7 8
M  V30 8 1 8 9
M  V30 9 1 8 10
M  V30 10 1 8 11
M  V30 11 1 9 12
M  V30 12 1 10 13
M  V30 13 1 11 14
M  V30 14 2 12 15
M  V30 15 1 12 16
M  V30 16 1 13 17
M  V30 17 1 16 18
M  V30 18 1 17 19
M  V30 19 1 18 20
M  V30 20 1 19 21
M  V30 21 1 20 22
M  V30 22 1 21 23
M  V30 23 1 22 24
M  V30 24 1 23 25
M  V30 25 1 24 26
M  V30 26 2 25 27
M  V30 27 1 25 28
M  V30 28 1 26 29
M  V30 29 2 28 30
M  V30 30 1 28 31
M  V30 31 1 29 32
M  V30 32 1 30 33
M  V30 33 2 31 34
M  V30 34 1 32 35
M  V30 35 2 33 36
M  V30 36 1 36 37
M  V30 37 1 6 7
M  V30 38 1 14 17
M  V30 39 1 34 36
M  V30 40 1 3 38
M  V30 41 1 4 39
M  V30 42 1 5 40
M  V30 43 1 6 41
M  V30 44 1 10 42
M  V30 45 1 10 43
M  V30 46 1 11 44
M  V30 47 1 11 45
M  V30 48 1 13 46
M  V30 49 1 13 47
M  V30 50 1 14 48
M  V30 51 1 14 49
M  V30 52 1 16 50
M  V30 53 1 16 51
M  V30 54 1 18 52
M  V30 55 1 18 53
M  V30 56 1 19 54
M  V30 57 1 19 55
M  V30 58 1 20 56
M  V30 59 1 20 57
M  V30 60 1 21 58
M  V30 61 1 21 59
M  V30 62 1 22 60
M  V30 63 1 22 61
M  V30 64 1 23 62
M  V30 65 1 23 63
M  V30 66 1 24 64
M  V30 67 1 24 65
M  V30 68 1 26 66
M  V30 69 1 26 67
M  V30 70 1 29 68
M  V30 71 1 29 69
M  V30 72 1 30 70
M  V30 73 1 31 71
M  V30 74 1 32 72
M  V30 75 1 32 73
M  V30 76 1 33 74
M  V30 77 1 34 75
M  V30 78 1 35 76
M  V30 79 1 35 77
M  V30 80 1 35 78
M  V30 END BOND
M  V30 END CTAB
M  END
>  <level_0>
1525

>  <index>
1525

>  <NO.>
1526

>  <Name>
haloperidol decanoate

>  <SMILES>
CCCCCCCCCC(=O)OC1(c2ccc(Cl)cc2)CCN(CCCC(=O)c2ccc(F)cc2)CC1

>  <logBB>


>  <Class>
1

>  <MW>
529.28

>  <nHBAcc>
4

>  <nHBDon>
0

>  <SLogP>
8.12

>  <TopoPSA>
46.61

>  <MMFF94 Energy>
42.34

$$$$
CCCCCCCCCCCCCC(=O)O[C@H]1C=C[C@H]2[C@H]3Cc4ccc(OCc5ccccc5)c5c4[C@@]2(CCN3C)[C@H]1O5
Actelion Java MolfileCreator 2.0

  0  0  0  0  0  0              0 V3000
M  V30 BEGIN CTAB
M  V30 COUNTS 94 99 0 0 0
M  V30 BEGIN ATOM
M  V30 1 O -1.6747 3.8312 1.1162 0
M  V30 2 C -0.5033 3.6557 0.8108 0
M  V30 3 O 0.2256 4.4778 0.0047 0
M  V30 4 C 0.3715 2.5225 1.2903 0
M  V30 5 C -0.5316 5.5009 -0.6677 0 CFG=1
M  V30 6 C -0.4543 1.3617 1.8384 0
M  V30 7 C 0.464 6.5709 -1.0476 0
M  V30 8 C -1.3929 4.9183 -1.8419 0 CFG=2
M  V30 9 C 0.4427 0.206 2.2814 0
M  V30 10 C 0.4645 7.2331 -2.2133 0
M  V30 11 O -1.1753 3.4672 -1.9918 0
M  V30 12 C -1.1194 5.538 -3.2271 0 CFG=1
M  V30 13 C -0.3809 -0.9598 2.8289 0
M  V30 14 C -0.5583 6.963 -3.2846 0 CFG=2
M  V30 15 C -0.1908 3.3849 -2.9484 0
M  V30 16 C -0.0727 4.5629 -3.6571 0
M  V30 17 C -2.3302 5.4376 -4.1787 0
M  V30 18 C 0.5171 -2.1234 3.2504 0
M  V30 19 C -0.0548 7.1801 -4.7506 0 CFG=2
M  V30 20 C 0.6472 2.3135 -3.1891 0
M  V30 21 C 0.9311 4.7912 -4.576 0
M  V30 22 C -1.9896 5.8948 -5.606 0
M  V30 23 C -0.3088 -3.3196 3.7249 0
M  V30 24 N -1.2581 7.1679 -5.6261 0
M  V30 25 C 1.089 6.1766 -5.1436 0
M  V30 26 O 0.4437 1.1988 -2.4313 0
M  V30 27 C 1.6445 2.4945 -4.1596 0
M  V30 28 C 1.7957 3.7286 -4.8366 0
M  V30 29 C 0.5891 -4.4945 4.1146 0
M  V30 30 C -0.9803 7.5942 -6.9944 0
M  V30 31 C 1.229 0.0494 -2.7379 0
M  V30 32 C -0.2364 -5.694 4.5825 0
M  V30 33 C 0.7848 -1.1223 -1.8902 0
M  V30 34 C 0.6613 -6.8701 4.9697 0
M  V30 35 C 1.7223 -2.0717 -1.4565 0
M  V30 36 C -0.5689 -1.3233 -1.5816 0
M  V30 37 C -0.1641 -8.07 5.4369 0
M  V30 38 C 1.3168 -3.1842 -0.716 0
M  V30 39 C -0.9726 -2.436 -0.8418 0
M  V30 40 C 0.7336 -9.2463 5.824 0
M  V30 41 C -0.0299 -3.3658 -0.409 0
M  V30 42 C -0.0913 -10.4453 6.2907 0
M  V30 43 C 0.7975 -11.6169 6.6764 0
M  V30 44 H 1.043 2.9138 2.0621 0
M  V30 45 H 0.973 2.1682 0.445 0
M  V30 46 H -1.206 5.9801 0.0558 0
M  V30 47 H -1.156 1.0139 1.0697 0
M  V30 48 H -1.0602 1.7052 2.6861 0
M  V30 49 H 1.2019 6.8315 -0.292 0
M  V30 50 H -2.4493 5.0483 -1.574 0
M  V30 51 H 1.1408 0.556 3.0516 0
M  V30 52 H 1.045 -0.1365 1.4314 0
M  V30 53 H 1.1902 8.0254 -2.3806 0
M  V30 54 H -1.0905 -1.2979 2.0648 0
M  V30 55 H -0.9722 -0.6226 3.6891 0
M  V30 56 H -1.3688 7.6833 -3.0937 0
M  V30 57 H -3.1406 6.0682 -3.7884 0
M  V30 58 H -2.7267 4.4149 -4.2209 0
M  V30 59 H 1.1882 -1.7964 4.054 0
M  V30 60 H 1.1496 -2.4257 2.4077 0
M  V30 61 H 0.3681 8.1926 -4.811 0
M  V30 62 H -2.9336 6.0077 -6.154 0
M  V30 63 H -1.4262 5.11 -6.1255 0
M  V30 64 H -0.995 -3.632 2.9284 0
M  V30 65 H -0.9236 -3.0241 4.5838 0
M  V30 66 H 1.2081 6.1182 -6.23 0
M  V30 67 H 2.0313 6.5806 -4.7497 0
M  V30 68 H 2.3523 1.7061 -4.396 0
M  V30 69 H 2.6099 3.8478 -5.548 0
M  V30 70 H 1.2736 -4.1848 4.9136 0
M  V30 71 H 1.2054 -4.7861 3.2554 0
M  V30 72 H -0.4534 8.5546 -7.0041 0
M  V30 73 H -0.3856 6.866 -7.5549 0
M  V30 74 H -1.9185 7.7496 -7.5391 0
M  V30 75 H 2.2826 0.2692 -2.5262 0
M  V30 76 H 1.1075 -0.2325 -3.7911 0
M  V30 77 H -0.9215 -6.0024 3.7834 0
M  V30 78 H -0.8524 -5.4032 5.4422 0
M  V30 79 H 1.3462 -6.5617 5.7691 0
M  V30 80 H 1.2774 -7.1604 4.11 0
M  V30 81 H 2.7771 -1.9515 -1.6925 0
M  V30 82 H -1.3182 -0.6066 -1.9143 0
M  V30 83 H -0.8492 -8.3781 4.6377 0
M  V30 84 H -0.7802 -7.7797 6.2968 0
M  V30 85 H 2.052 -3.91 -0.3788 0
M  V30 86 H -2.0238 -2.5736 -0.6022 0
M  V30 87 H 1.4187 -8.9382 6.6233 0
M  V30 88 H 1.3498 -9.5365 4.9643 0
M  V30 89 H -0.3451 -4.2298 0.1698 0
M  V30 90 H -0.7063 -10.1615 7.1528 0
M  V30 91 H -0.7752 -10.7599 5.4938 0
M  V30 92 H 0.187 -12.463 7.007 0
M  V30 93 H 1.403 -11.9464 5.8261 0
M  V30 94 H 1.4722 -11.3447 7.4944 0
M  V30 END ATOM
M  V30 BEGIN BOND
M  V30 1 2 1 2
M  V30 2 1 2 3
M  V30 3 1 2 4
M  V30 4 1 3 5
M  V30 5 1 4 6
M  V30 6 1 5 7
M  V30 7 1 5 8
M  V30 8 1 6 9
M  V30 9 2 7 10
M  V30 10 1 8 11
M  V30 11 1 8 12
M  V30 12 1 9 13
M  V30 13 1 10 14
M  V30 14 1 11 15
M  V30 15 1 12 16
M  V30 16 1 12 17
M  V30 17 1 13 18
M  V30 18 1 14 19
M  V30 19 1 15 20
M  V30 20 1 16 21
M  V30 21 1 17 22
M  V30 22 1 18 23
M  V30 23 1 19 24
M  V30 24 1 19 25
M  V30 25 1 20 26
M  V30 26 2 20 27
M  V30 27 2 21 28
M  V30 28 1 23 29
M  V30 29 1 24 30
M  V30 30 1 26 31
M  V30 31 1 29 32
M  V30 32 1 31 33
M  V30 33 1 32 34
M  V30 34 2 33 35
M  V30 35 1 33 36
M  V30 36 1 34 37
M  V30 37 1 35 38
M  V30 38 2 36 39
M  V30 39 1 37 40
M  V30 40 2 38 41
M  V30 41 1 40 42
M  V30 42 1 42 43
M  V30 43 1 12 14
M  V30 44 2 15 16
M  V30 45 1 21 25
M  V30 46 1 22 24
M  V30 47 1 27 28
M  V30 48 1 39 41
M  V30 49 1 4 44
M  V30 50 1 4 45
M  V30 51 1 5 46
M  V30 52 1 6 47
M  V30 53 1 6 48
M  V30 54 1 7 49
M  V30 55 1 8 50
M  V30 56 1 9 51
M  V30 57 1 9 52
M  V30 58 1 10 53
M  V30 59 1 13 54
M  V30 60 1 13 55
M  V30 61 1 14 56
M  V30 62 1 17 57
M  V30 63 1 17 58
M  V30 64 1 18 59
M  V30 65 1 18 60
M  V30 66 1 19 61
M  V30 67 1 22 62
M  V30 68 1 22 63
M  V30 69 1 23 64
M  V30 70 1 23 65
M  V30 71 1 25 66
M  V30 72 1 25 67
M  V30 73 1 27 68
M  V30 74 1 28 69
M  V30 75 1 29 70
M  V30 76 1 29 71
M  V30 77 1 30 72
M  V30 78 1 30 73
M  V30 79 1 30 74
M  V30 80 1 31 75
M  V30 81 1 31 76
M  V30 82 1 32 77
M  V30 83 1 32 78
M  V30 84 1 34 79
M  V30 85 1 34 80
M  V30 86 1 35 81
M  V30 87 1 36 82
M  V30 88 1 37 83
M  V30 89 1 37 84
M  V30 90 1 38 85
M  V30 91 1 39 86
M  V30 92 1 40 87
M  V30 93 1 40 88
M  V30 94 1 41 89
M  V30 95 1 42 90
M  V30 96 1 42 91
M  V30 97 1 43 92
M  V30 98 1 43 93
M  V30 99 1 43 94
M  V30 END BOND
M  V30 BEGIN COLLECTION
M  V30 MDLV30/STEABS ATOMS=(5 5 8 12 14 19)
M  V30 END COLLECTION
M  V30 END CTAB
M  END
>  <level_0>
1527

>  <index>
1527

>  <NO.>
1528

>  <Name>
myrophine

>  <SMILES>
CCCCCCCCCCCCCC(=O)O[C@H]1C=C[C@H]2[C@H]3Cc4ccc(OCc5ccccc5)c5c4[C@@]2(CCN3C)[C@H]1O5

>  <logBB>


>  <Class>
1

>  <MW>
585.38

>  <nHBAcc>
5

>  <nHBDon>
0

>  <SLogP>
8.32

>  <TopoPSA>
48.0

>  <MMFF94 Energy>
118.07

$$$$
CCCCCCCCCCCCCCCC(=O)OCCC1CCN(CCCN2c3ccccc3Sc3ccc(S(=O)(=O)N(C)C)cc32)CC1
Actelion Java MolfileCreator 2.0

  0  0  0  0  0  0              0 V3000
M  V30 BEGIN CTAB
M  V30 COUNTS 112 115 0 0 0
M  V30 BEGIN ATOM
M  V30 1 S -3.8321 -6.3931 -9.9227 0
M  V30 2 O -4.4438 -7.3437 -10.8259 0
M  V30 3 O -2.4855 -5.9071 -10.1429 0
M  V30 4 N -4.8542 -5.0231 -9.8058 0
M  V30 5 C -3.9241 -7.0851 -8.2919 0
M  V30 6 C -4.3884 -3.9709 -8.8726 0
M  V30 7 C -5.2068 -4.4563 -11.1275 0
M  V30 8 C -2.7869 -7.1093 -7.4766 0
M  V30 9 C -5.1382 -7.5918 -7.8416 0
M  V30 10 C -2.8426 -7.6078 -6.1607 0
M  V30 11 C -5.2092 -8.1175 -6.5558 0
M  V30 12 N -1.7011 -7.5919 -5.3164 0
M  V30 13 C -4.0764 -8.1345 -5.7201 0
M  V30 14 C -1.5309 -8.4306 -4.1842 0
M  V30 15 C -0.7439 -6.4706 -5.4817 0
M  V30 16 S -4.312 -8.8092 -4.0878 0
M  V30 17 C -2.6325 -9.0235 -3.5353 0
M  V30 18 C -0.2503 -8.7489 -3.6864 0
M  V30 19 C -1.3744 -5.0843 -5.2596 0
M  V30 20 C -2.4482 -9.8246 -2.3939 0
M  V30 21 C -0.0711 -9.5557 -2.5577 0
M  V30 22 C -1.9495 -4.9153 -3.8478 0
M  V30 23 C -1.1728 -10.084 -1.9021 0
M  V30 24 N -2.5311 -3.5729 -3.6389 0
M  V30 25 C -1.4926 -2.5453 -3.4665 0
M  V30 26 C -3.4381 -3.6012 -2.4782 0
M  V30 27 C -2.1106 -1.157 -3.2742 0
M  V30 28 C -4.1064 -2.2425 -2.2523 0
M  V30 29 C -3.0888 -1.1029 -2.0927 0
M  V30 30 C -2.4035 -1.164 -0.7135 0
M  V30 31 C -1.5094 0.0388 -0.4196 0
M  V30 32 O -1.0389 -0.0823 0.9311 0
M  V30 33 C -0.2146 0.9287 1.329 0
M  V30 34 O 0.1267 1.8716 0.6299 0
M  V30 35 C 0.2072 0.696 2.7608 0
M  V30 36 C 1.1263 1.8047 3.2728 0
M  V30 37 C 1.5391 1.5558 4.7246 0
M  V30 38 C 2.5525 2.575 5.253 0
M  V30 39 C 1.9897 3.9941 5.3592 0
M  V30 40 C 3.0034 4.9453 5.9993 0
M  V30 41 C 2.4452 6.3659 6.1029 0
M  V30 42 C 3.4586 7.3168 6.7437 0
M  V30 43 C 2.899 8.7378 6.8425 0
M  V30 44 C 3.8298 9.708 7.5772 0
M  V30 45 C 5.1487 9.9557 6.8404 0
M  V30 46 C 5.9796 11.0891 7.451 0
M  V30 47 C 6.4794 10.782 8.8644 0
M  V30 48 C 7.3934 11.8937 9.3817 0
M  V30 49 C 7.891 11.5968 10.7875 0
M  V30 50 H -4.2372 -4.3737 -7.8682 0
M  V30 51 H -3.4616 -3.5103 -9.227 0
M  V30 52 H -5.1518 -3.1901 -8.788 0
M  V30 53 H -5.6987 -5.2094 -11.7497 0
M  V30 54 H -4.3186 -4.0764 -11.6413 0
M  V30 55 H -5.9165 -3.6318 -11.0026 0
M  V30 56 H -1.8532 -6.7361 -7.8865 0
M  V30 57 H -6.0185 -7.5798 -8.4799 0
M  V30 58 H -6.1581 -8.5172 -6.2027 0
M  V30 59 H -0.2837 -6.5153 -6.4758 0
M  V30 60 H 0.1024 -6.5299 -4.7904 0
M  V30 61 H 0.647 -8.4073 -4.1943 0
M  V30 62 H -2.1581 -4.8838 -5.9982 0
M  V30 63 H -0.5877 -4.3433 -5.4407 0
M  V30 64 H -3.3055 -10.2645 -1.8884 0
M  V30 65 H 0.9323 -9.7785 -2.204 0
M  V30 66 H -2.7424 -5.6617 -3.7216 0
M  V30 67 H -1.1861 -5.1324 -3.0898 0
M  V30 68 H -1.0423 -10.713 -1.0258 0
M  V30 69 H -0.8576 -2.493 -4.3569 0
M  V30 70 H -0.8373 -2.7861 -2.6202 0
M  V30 71 H -4.2347 -4.3354 -2.6523 0
M  V30 72 H -2.9048 -3.9165 -1.5726 0
M  V30 73 H -1.317 -0.4109 -3.1662 0
M  V30 74 H -2.6533 -0.8859 -4.1903 0
M  V30 75 H -4.7624 -2.2954 -1.3753 0
M  V30 76 H -4.7555 -2.0203 -3.1101 0
M  V30 77 H -3.6371 -0.153 -2.1448 0
M  V30 78 H -3.1718 -1.2191 0.0694 0
M  V30 79 H -1.8128 -2.0802 -0.5988 0
M  V30 80 H -0.6481 0.0541 -1.0951 0
M  V30 81 H -2.0803 0.9687 -0.5231 0
M  V30 82 H 0.7255 -0.2679 2.811 0
M  V30 83 H -0.6957 0.6496 3.38 0
M  V30 84 H 0.61 2.7677 3.1861 0
M  V30 85 H 2.0195 1.865 2.6388 0
M  V30 86 H 1.9873 0.5574 4.8027 0
M  V30 87 H 0.6504 1.5536 5.3675 0
M  V30 88 H 3.4418 2.576 4.6112 0
M  V30 89 H 2.881 2.2454 6.2466 0
M  V30 90 H 1.0703 3.9817 5.9569 0
M  V30 91 H 1.7263 4.3696 4.3642 0
M  V30 92 H 3.9244 4.9548 5.4038 0
M  V30 93 H 3.2684 4.5817 6.9995 0
M  V30 94 H 1.5236 6.3554 6.6976 0
M  V30 95 H 2.1809 6.7309 5.1029 0
M  V30 96 H 4.3774 7.3157 6.1468 0
M  V30 97 H 3.7199 6.9541 7.7451 0
M  V30 98 H 1.9426 8.71 7.3794 0
M  V30 99 H 2.6852 9.1227 5.8379 0
M  V30 100 H 4.0258 9.3222 8.584 0
M  V30 101 H 3.3017 10.6618 7.6989 0
M  V30 102 H 4.9336 10.2143 5.7963 0
M  V30 103 H 5.7503 9.04 6.824 0
M  V30 104 H 5.3904 12.0142 7.459 0
M  V30 105 H 6.8419 11.2703 6.7973 0
M  V30 106 H 7.0237 9.8301 8.8636 0
M  V30 107 H 5.6298 10.6705 9.5474 0
M  V30 108 H 8.2542 12.0099 8.7133 0
M  V30 109 H 6.8537 12.8479 9.3852 0
M  V30 110 H 8.5427 12.4037 11.1371 0
M  V30 111 H 7.0553 11.5073 11.4889 0
M  V30 112 H 8.4624 10.6635 10.8123 0
M  V30 END ATOM
M  V30 BEGIN BOND
M  V30 1 2 1 2
M  V30 2 2 1 3
M  V30 3 1 1 4
M  V30 4 1 1 5
M  V30 5 1 4 6
M  V30 6 1 4 7
M  V30 7 2 5 8
M  V30 8 1 5 9
M  V30 9 1 8 10
M  V30 10 2 9 11
M  V30 11 1 10 12
M  V30 12 2 10 13
M  V30 13 1 12 14
M  V30 14 1 12 15
M  V30 15 1 13 16
M  V30 16 2 14 17
M  V30 17 1 14 18
M  V30 18 1 15 19
M  V30 19 1 17 20
M  V30 20 2 18 21
M  V30 21 1 19 22
M  V30 22 2 20 23
M  V30 23 1 22 24
M  V30 24 1 24 25
M  V30 25 1 24 26
M  V30 26 1 25 27
M  V30 27 1 26 28
M  V30 28 1 27 29
M  V30 29 1 29 30
M  V30 30 1 30 31
M  V30 31 1 31 32
M  V30 32 1 32 33
M  V30 33 2 33 34
M  V30 34 1 33 35
M  V30 35 1 35 36
M  V30 36 1 36 37
M  V30 37 1 37 38
M  V30 38 1 38 39
M  V30 39 1 39 40
M  V30 40 1 40 41
M  V30 41 1 41 42
M  V30 42 1 42 43
M  V30 43 1 43 44
M  V30 44 1 44 45
M  V30 45 1 45 46
M  V30 46 1 46 47
M  V30 47 1 47 48
M  V30 48 1 48 49
M  V30 49 1 11 13
M  V30 50 1 16 17
M  V30 51 1 21 23
M  V30 52 1 28 29
M  V30 53 1 6 50
M  V30 54 1 6 51
M  V30 55 1 6 52
M  V30 56 1 7 53
M  V30 57 1 7 54
M  V30 58 1 7 55
M  V30 59 1 8 56
M  V30 60 1 9 57
M  V30 61 1 11 58
M  V30 62 1 15 59
M  V30 63 1 15 60
M  V30 64 1 18 61
M  V30 65 1 19 62
M  V30 66 1 19 63
M  V30 67 1 20 64
M  V30 68 1 21 65
M  V30 69 1 22 66
M  V30 70 1 22 67
M  V30 71 1 23 68
M  V30 72 1 25 69
M  V30 73 1 25 70
M  V30 74 1 26 71
M  V30 75 1 26 72
M  V30 76 1 27 73
M  V30 77 1 27 74
M  V30 78 1 28 75
M  V30 79 1 28 76
M  V30 80 1 29 77
M  V30 81 1 30 78
M  V30 82 1 30 79
M  V30 83 1 31 80
M  V30 84 1 31 81
M  V30 85 1 35 82
M  V30 86 1 35 83
M  V30 87 1 36 84
M  V30 88 1 36 85
M  V30 89 1 37 86
M  V30 90 1 37 87
M  V30 91 1 38 88
M  V30 92 1 38 89
M  V30 93 1 39 90
M  V30 94 1 39 91
M  V30 95 1 40 92
M  V30 96 1 40 93
M  V30 97 1 41 94
M  V30 98 1 41 95
M  V30 99 1 42 96
M  V30 100 1 42 97
M  V30 101 1 43 98
M  V30 102 1 43 99
M  V30 103 1 44 100
M  V30 104 1 44 101
M  V30 105 1 45 102
M  V30 106 1 45 103
M  V30 107 1 46 104
M  V30 108 1 46 105
M  V30 109 1 47 106
M  V30 110 1 47 107
M  V30 111 1 48 108
M  V30 112 1 48 109
M  V30 113 1 49 110
M  V30 114 1 49 111
M  V30 115 1 49 112
M  V30 END BOND
M  V30 END CTAB
M  END
>  <level_0>
1528

>  <index>
1528

>  <NO.>
1529

>  <Name>
pipotiazine palmitate

>  <SMILES>
CCCCCCCCCCCCCCCC(=O)OCCC1CCN(CCCN2c3ccccc3Sc3ccc(S(=O)(=O)N(C)C)cc32)CC1

>  <logBB>


>  <Class>
1

>  <MW>
713.43

>  <nHBAcc>
7

>  <nHBDon>
0

>  <SLogP>
10.06

>  <TopoPSA>
70.16

>  <MMFF94 Energy>
19.775

$$$$
CCCCCCCCCCCCCCCCCC(=O)OCC(=O)OCC(=O)[C@@]1(O)CC[C@H]2[C@@H]3CCC4=CC(=O)C=C[C@]4(C)[C@H]3[C@@H](O)C[C@@]21C
Actelion Java MolfileCreator 2.0

  0  0  0  0  0  0              0 V3000
M  V30 BEGIN CTAB
M  V30 COUNTS 113 116 0 0 0
M  V30 BEGIN ATOM
M  V30 1 O 3.4956 3.4956 6.8412 0
M  V30 2 C 3.1069 3.3206 5.6933 0
M  V30 3 C 2.2007 4.2819 5.0332 0
M  V30 4 C 3.5326 2.1458 4.9107 0
M  V30 5 C 1.7629 4.0967 3.7751 0
M  V30 6 C 3.0971 1.9588 3.6581 0
M  V30 7 C 2.1445 2.8847 2.9089 0 CFG=2
M  V30 8 C 0.891 5.1321 3.1113 0
M  V30 9 C 2.8372 3.4487 1.6106 0 CFG=1
M  V30 10 C 0.865 2.0613 2.639 0
M  V30 11 C 1.5535 5.651 1.8394 0
M  V30 12 C 3.4303 2.3868 0.6365 0 CFG=1
M  V30 13 C 1.9421 4.5115 0.8794 0 CFG=1
M  V30 14 O 2.4897 1.3809 0.2909 0
M  V30 15 C 4.0166 3.0122 -0.6433 0
M  V30 16 C 2.6963 5.0603 -0.3442 0 CFG=1
M  V30 17 C 3.0551 3.9669 -1.3782 0 CFG=1
M  V30 18 C 2.0256 6.1338 -1.1858 0
M  V30 19 C 3.6832 4.8325 -2.5319 0 CFG=1
M  V30 20 C 1.8097 3.2021 -1.9008 0
M  V30 21 C 2.8512 6.1558 -2.4826 0
M  V30 22 O 5.0239 5.2116 -2.214 0
M  V30 23 C 3.5728 4.2375 -3.969 0
M  V30 24 O 2.4928 4.1583 -4.5669 0
M  V30 25 C 4.8265 3.7091 -4.6491 0
M  V30 26 O 4.9899 2.3038 -4.4595 0
M  V30 27 C 5.8233 1.9359 -3.4523 0
M  V30 28 O 6.387 2.729 -2.7064 0
M  V30 29 C 5.9897 0.4207 -3.3907 0
M  V30 30 O 4.875 -0.321 -3.8927 0
M  V30 31 C 3.8188 -0.4362 -3.0397 0
M  V30 32 O 3.798 -0.0151 -1.8907 0
M  V30 33 C 2.6866 -1.1631 -3.7245 0
M  V30 34 C 1.4122 -1.1388 -2.8819 0
M  V30 35 C 0.2601 -1.8509 -3.5904 0
M  V30 36 C -1.015 -1.8174 -2.7462 0
M  V30 37 C -2.1688 -2.5323 -3.4512 0
M  V30 38 C -3.4444 -2.495 -2.6066 0
M  V30 39 C -4.5945 -3.2209 -3.3073 0
M  V30 40 C -5.928 -3.1159 -2.5603 0
M  V30 41 C -5.9383 -3.6745 -1.1333 0
M  V30 42 C -5.5753 -5.1596 -1.0617 0
M  V30 43 C -5.7781 -5.7658 0.3305 0
M  V30 44 C -4.8349 -5.1858 1.3871 0
M  V30 45 C -4.9971 -5.9045 2.7295 0
M  V30 46 C -4.059 -5.3189 3.7875 0
M  V30 47 C -4.097 -6.0735 5.1195 0
M  V30 48 C -5.4401 -5.9637 5.8423 0
M  V30 49 C -5.3903 -6.6309 7.2085 0
M  V30 50 H 1.9326 5.1478 5.6276 0
M  V30 51 H 4.1959 1.4489 5.4077 0
M  V30 52 H 3.4169 1.0571 3.1394 0
M  V30 53 H -0.0883 4.6991 2.8774 0
M  V30 54 H 0.6979 5.9794 3.7808 0
M  V30 55 H 3.7203 4.0121 1.9595 0
M  V30 56 H 1.0846 1.0687 2.2321 0
M  V30 57 H 0.3036 1.8915 3.5675 0
M  V30 58 H 0.1829 2.555 1.941 0
M  V30 59 H 2.4458 6.2331 2.1053 0
M  V30 60 H 0.8625 6.3422 1.3427 0
M  V30 61 H 4.2529 1.8688 1.1434 0
M  V30 62 H 1.0105 4.0419 0.5491 0
M  V30 63 H 2.9212 0.7831 -0.3569 0
M  V30 64 H 4.9273 3.5456 -0.3451 0
M  V30 65 H 4.3208 2.2229 -1.3259 0
M  V30 66 H 3.6299 5.5077 0.035 0
M  V30 67 H 2.0368 7.1132 -0.6966 0
M  V30 68 H 0.9801 5.8842 -1.3981 0
M  V30 69 H 2.1122 2.3803 -2.5592 0
M  V30 70 H 1.1315 3.8491 -2.4661 0
M  V30 71 H 1.1995 2.7623 -1.1108 0
M  V30 72 H 2.1722 6.2772 -3.3332 0
M  V30 73 H 3.5138 7.0303 -2.4783 0
M  V30 74 H 5.5807 4.4091 -2.137 0
M  V30 75 H 4.6991 3.8699 -5.7263 0
M  V30 76 H 5.7142 4.2902 -4.3812 0
M  V30 77 H 6.8566 0.1624 -4.0072 0
M  V30 78 H 6.2136 0.1237 -2.3597 0
M  V30 79 H 3.0015 -2.1967 -3.9034 0
M  V30 80 H 2.4973 -0.6741 -4.6869 0
M  V30 81 H 1.13 -0.0998 -2.6699 0
M  V30 82 H 1.6013 -1.6165 -1.9124 0
M  V30 83 H 0.5405 -2.8917 -3.7925 0
M  V30 84 H 0.0718 -1.3721 -4.5589 0
M  V30 85 H -1.2956 -0.776 -2.546 0
M  V30 86 H -0.826 -2.2932 -1.7762 0
M  V30 87 H -1.8894 -3.5743 -3.6486 0
M  V30 88 H -2.3565 -2.0577 -4.422 0
M  V30 89 H -3.7286 -1.4531 -2.4162 0
M  V30 90 H -3.2429 -2.9607 -1.6353 0
M  V30 91 H -4.3316 -4.2739 -3.4598 0
M  V30 92 H -4.7329 -2.7916 -4.3078 0
M  V30 93 H -6.696 -3.6329 -3.1491 0
M  V30 94 H -6.2299 -2.0617 -2.5209 0
M  V30 95 H -6.9448 -3.531 -0.7204 0
M  V30 96 H -5.2613 -3.0857 -0.5056 0
M  V30 97 H -4.5341 -5.3103 -1.3684 0
M  V30 98 H -6.2001 -5.7154 -1.7715 0
M  V30 99 H -5.6132 -6.8481 0.2588 0
M  V30 100 H -6.8194 -5.6257 0.6454 0
M  V30 101 H -5.0379 -4.1181 1.5269 0
M  V30 102 H -3.7975 -5.2782 1.0439 0
M  V30 103 H -4.7857 -6.9729 2.602 0
M  V30 104 H -6.0383 -5.8151 3.0591 0
M  V30 105 H -4.3033 -4.263 3.956 0
M  V30 106 H -3.0299 -5.3479 3.4083 0
M  V30 107 H -3.3091 -5.6657 5.7651 0
M  V30 108 H -3.8515 -7.1291 4.9514 0
M  V30 109 H -5.7115 -4.9091 5.9675 0
M  V30 110 H -6.2312 -6.4369 5.2511 0
M  V30 111 H -6.3606 -6.545 7.7078 0
M  V30 112 H -5.1481 -7.6945 7.1168 0
M  V30 113 H -4.6369 -6.1603 7.8482 0
M  V30 END ATOM
M  V30 BEGIN BOND
M  V30 1 2 1 2
M  V30 2 1 2 3
M  V30 3 1 2 4
M  V30 4 2 3 5
M  V30 5 2 4 6
M  V30 6 1 5 7
M  V30 7 1 5 8
M  V30 8 1 7 9
M  V30 9 1 7 10
M  V30 10 1 8 11
M  V30 11 1 9 12
M  V30 12 1 9 13
M  V30 13 1 12 14
M  V30 14 1 12 15
M  V30 15 1 13 16
M  V30 16 1 15 17
M  V30 17 1 16 18
M  V30 18 1 17 19
M  V30 19 1 17 20
M  V30 20 1 18 21
M  V30 21 1 19 22
M  V30 22 1 19 23
M  V30 23 2 23 24
M  V30 24 1 23 25
M  V30 25 1 25 26
M  V30 26 1 26 27
M  V30 27 2 27 28
M  V30 28 1 27 29
M  V30 29 1 29 30
M  V30 30 1 30 31
M  V30 31 2 31 32
M  V30 32 1 31 33
M  V30 33 1 33 34
M  V30 34 1 34 35
M  V30 35 1 35 36
M  V30 36 1 36 37
M  V30 37 1 37 38
M  V30 38 1 38 39
M  V30 39 1 39 40
M  V30 40 1 40 41
M  V30 41 1 41 42
M  V30 42 1 42 43
M  V30 43 1 43 44
M  V30 44 1 44 45
M  V30 45 1 45 46
M  V30 46 1 46 47
M  V30 47 1 47 48
M  V30 48 1 48 49
M  V30 49 1 6 7
M  V30 50 1 11 13
M  V30 51 1 16 17
M  V30 52 1 19 21
M  V30 53 1 3 50
M  V30 54 1 4 51
M  V30 55 1 6 52
M  V30 56 1 8 53
M  V30 57 1 8 54
M  V30 58 1 9 55
M  V30 59 1 10 56
M  V30 60 1 10 57
M  V30 61 1 10 58
M  V30 62 1 11 59
M  V30 63 1 11 60
M  V30 64 1 12 61
M  V30 65 1 13 62
M  V30 66 1 14 63
M  V30 67 1 15 64
M  V30 68 1 15 65
M  V30 69 1 16 66
M  V30 70 1 18 67
M  V30 71 1 18 68
M  V30 72 1 20 69
M  V30 73 1 20 70
M  V30 74 1 20 71
M  V30 75 1 21 72
M  V30 76 1 21 73
M  V30 77 1 22 74
M  V30 78 1 25 75
M  V30 79 1 25 76
M  V30 80 1 29 77
M  V30 81 1 29 78
M  V30 82 1 33 79
M  V30 83 1 33 80
M  V30 84 1 34 81
M  V30 85 1 34 82
M  V30 86 1 35 83
M  V30 87 1 35 84
M  V30 88 1 36 85
M  V30 89 1 36 86
M  V30 90 1 37 87
M  V30 91 1 37 88
M  V30 92 1 38 89
M  V30 93 1 38 90
M  V30 94 1 39 91
M  V30 95 1 39 92
M  V30 96 1 40 93
M  V30 97 1 40 94
M  V30 98 1 41 95
M  V30 99 1 41 96
M  V30 100 1 42 97
M  V30 101 1 42 98
M  V30 102 1 43 99
M  V30 103 1 43 100
M  V30 104 1 44 101
M  V30 105 1 44 102
M  V30 106 1 45 103
M  V30 107 1 45 104
M  V30 108 1 46 105
M  V30 109 1 46 106
M  V30 110 1 47 107
M  V30 111 1 47 108
M  V30 112 1 48 109
M  V30 113 1 48 110
M  V30 114 1 49 111
M  V30 115 1 49 112
M  V30 116 1 49 113
M  V30 END BOND
M  V30 BEGIN COLLECTION
M  V30 MDLV30/STEABS ATOMS=(7 7 9 12 13 16 17 19)
M  V30 END COLLECTION
M  V30 END CTAB
M  END
>  <level_0>
1529

>  <index>
1529

>  <NO.>
1530

>  <Name>
prednisolone-steaglate

>  <SMILES>
CCCCCCCCCCCCCCCCCC(=O)OCC(=O)OCC(=O)[C@@]1(O)CC[C@H]2[C@@H]3CCC4=CC(=O)C=C[C@]4(C)[C@H]3[C@@H](O)C[C@@]21C

>  <logBB>


>  <Class>
1

>  <MW>
684.46

>  <nHBAcc>
8

>  <nHBDon>
2

>  <SLogP>
7.91

>  <TopoPSA>
127.2

>  <MMFF94 Energy>
115.63

$$$$
CCCCN=C(c1cc(Cl)ccc1O)c1ccccc1Cl
Actelion Java MolfileCreator 2.0

  0  0  0  0  0  0              0 V3000
M  V30 BEGIN CTAB
M  V30 COUNTS 38 39 0 0 0
M  V30 BEGIN ATOM
M  V30 1 Cl -1.2101 -2.6637 0.3225 0
M  V30 2 C 0.234 -2.393 1.232 0
M  V30 3 C 0.9649 -1.201 1.1519 0
M  V30 4 C 0.6458 -3.3994 2.1109 0
M  V30 5 C 0.5749 -0.1104 0.2213 0
M  V30 6 C 2.1062 -1.0249 1.9467 0
M  V30 7 C 1.7815 -3.2203 2.9031 0
M  V30 8 N 0.6233 -0.3383 -1.0467 0
M  V30 9 C 0.1541 1.1677 0.8374 0
M  V30 10 C 2.5104 -2.0349 2.8212 0
M  V30 11 C 0.2109 0.6959 -1.9929 0
M  V30 12 C -1.1307 1.3291 1.3637 0
M  V30 13 C 1.0783 2.2162 0.8896 0
M  V30 14 C 0.0792 0.0756 -3.3849 0
M  V30 15 O -2.102 0.3727 1.2991 0
M  V30 16 C -1.4832 2.529 1.9767 0
M  V30 17 C 0.7131 3.4152 1.497 0
M  V30 18 C -0.9582 -1.0463 -3.4944 0
M  V30 19 C -0.5597 3.5747 2.0456 0
M  V30 20 Cl 1.8445 4.7082 1.576 0
M  V30 21 C -2.3709 -0.61 -3.1389 0
M  V30 22 H 0.0831 -4.3269 2.1862 0
M  V30 23 H 2.6975 -0.1159 1.8797 0
M  V30 24 H 2.0981 -4.0078 3.5833 0
M  V30 25 H 3.3988 -1.9002 3.4342 0
M  V30 26 H -0.738 1.1611 -1.706 0
M  V30 27 H 0.9746 1.4809 -2.0378 0
M  V30 28 H 2.0693 2.0955 0.4608 0
M  V30 29 H 1.053 -0.3264 -3.6915 0
M  V30 30 H -0.1727 0.8681 -4.1 0
M  V30 31 H -1.8442 -0.3205 0.662 0
M  V30 32 H -2.4808 2.6542 2.3908 0
M  V30 33 H -0.9564 -1.4168 -4.5265 0
M  V30 34 H -0.6689 -1.8921 -2.8609 0
M  V30 35 H -0.8426 4.5107 2.5209 0
M  V30 36 H -3.0762 -1.4228 -3.3396 0
M  V30 37 H -2.4571 -0.3535 -2.0789 0
M  V30 38 H -2.6757 0.2575 -3.7324 0
M  V30 END ATOM
M  V30 BEGIN BOND
M  V30 1 1 1 2
M  V30 2 2 2 3
M  V30 3 1 2 4
M  V30 4 1 3 5
M  V30 5 1 3 6
M  V30 6 2 4 7
M  V30 7 2 5 8
M  V30 8 1 5 9
M  V30 9 2 6 10
M  V30 10 1 8 11
M  V30 11 2 9 12
M  V30 12 1 9 13
M  V30 13 1 11 14
M  V30 14 1 12 15
M  V30 15 1 12 16
M  V30 16 2 13 17
M  V30 17 1 14 18
M  V30 18 2 16 19
M  V30 19 1 17 20
M  V30 20 1 18 21
M  V30 21 1 7 10
M  V30 22 1 17 19
M  V30 23 1 4 22
M  V30 24 1 6 23
M  V30 25 1 7 24
M  V30 26 1 10 25
M  V30 27 1 11 26
M  V30 28 1 11 27
M  V30 29 1 13 28
M  V30 30 1 14 29
M  V30 31 1 14 30
M  V30 32 1 15 31
M  V30 33 1 16 32
M  V30 34 1 18 33
M  V30 35 1 18 34
M  V30 36 1 19 35
M  V30 37 1 21 36
M  V30 38 1 21 37
M  V30 39 1 21 38
M  V30 END BOND
M  V30 END CTAB
M  END
>  <level_0>
1541

>  <index>
1541

>  <NO.>
1542

>  <Name>
fengabine

>  <SMILES>
CCCCN=C(c1cc(Cl)ccc1O)c1ccccc1Cl

>  <logBB>


>  <Class>
1

>  <MW>
321.07

>  <nHBAcc>
2

>  <nHBDon>
1

>  <SLogP>
5.34

>  <TopoPSA>
32.59

>  <MMFF94 Energy>
67.612

$$$$
CCCCOCC(CN1C(=O)N(CC(COCCCC)OC(N)=O)C(=O)C(CC)(c2ccccc2)C1=O)OC(N)=O
Actelion Java MolfileCreator 2.0

  0  0  0  0  0  0              0 V3000
M  V30 BEGIN CTAB
M  V30 COUNTS 83 84 0 0 0
M  V30 BEGIN ATOM
M  V30 1 O -0.7077 -1.3371 -1.0224 0
M  V30 2 C -0.592 -0.4955 -0.1294 0
M  V30 3 N 0.3909 -0.5852 0.8375 0
M  V30 4 N -1.4367 0.5988 -0.0639 0
M  V30 5 C 0.519 0.2624 1.9242 0
M  V30 6 C 1.4243 -1.6212 0.6673 0
M  V30 7 C -1.4763 1.5207 0.9699 0
M  V30 8 C -2.3633 0.7869 -1.1926 0
M  V30 9 O 1.494 0.1821 2.6782 0
M  V30 10 C -0.6403 1.2194 2.2161 0
M  V30 11 C 2.6566 -1.0854 -0.0899 0
M  V30 12 O -2.2108 2.5131 0.9139 0
M  V30 13 C -3.6308 -0.0822 -1.0648 0
M  V30 14 C -0.0461 2.512 2.8339 0
M  V30 15 C -1.5855 0.4115 3.1698 0
M  V30 16 O 2.2181 -0.6523 -1.3974 0
M  V30 17 C 3.7198 -2.1814 -0.247 0
M  V30 18 O -4.3332 0.3171 0.1333 0
M  V30 19 C -4.5455 0.1194 -2.2827 0
M  V30 20 C 0.3854 3.5704 2.009 0
M  V30 21 C 0.1799 2.6402 4.2174 0
M  V30 22 C -2.8082 1.1602 3.6961 0
M  V30 23 C 3.0118 0.2277 -2.0377 0
M  V30 24 O 4.081 -2.7097 1.0268 0
M  V30 25 C -5.2072 -0.5799 0.6339 0
M  V30 26 O -3.8344 -0.1558 -3.4879 0
M  V30 27 C 0.9636 4.7233 2.5482 0
M  V30 28 C 0.7596 3.7932 4.7554 0
M  V30 29 O 4.0679 0.6807 -1.633 0
M  V30 30 N 2.4625 0.5469 -3.2285 0
M  V30 31 C 5.1362 -3.6632 0.9286 0
M  V30 32 O -5.4438 -1.6884 0.1865 0
M  V30 33 N -5.8138 -0.067 1.7248 0
M  V30 34 C -4.6688 -0.0327 -4.6382 0
M  V30 35 C 1.1453 4.8371 3.9219 0
M  V30 36 C 5.466 -4.1967 2.3201 0
M  V30 37 C -3.8405 -0.3094 -5.8894 0
M  V30 38 C 5.8616 -3.1194 3.3349 0
M  V30 39 C -2.7189 0.7149 -6.0781 0
M  V30 40 C 7.1273 -2.3664 2.9561 0
M  V30 41 C -1.925 0.442 -7.3459 0
M  V30 42 H 1.7144 -1.9919 1.6572 0
M  V30 43 H 0.9963 -2.4687 0.1192 0
M  V30 44 H -1.826 0.5433 -2.117 0
M  V30 45 H -2.6491 1.8429 -1.2591 0
M  V30 46 H 3.0685 -0.2366 0.4711 0
M  V30 47 H -3.329 -1.1346 -0.9928 0
M  V30 48 H -1.9521 -0.4833 2.647 0
M  V30 49 H -1.0204 0.0253 4.0282 0
M  V30 50 H 3.3354 -2.988 -0.8837 0
M  V30 51 H 4.6075 -1.7722 -0.743 0
M  V30 52 H -5.4184 -0.5395 -2.2114 0
M  V30 53 H -4.9186 1.1513 -2.3022 0
M  V30 54 H 0.2764 3.5226 0.9275 0
M  V30 55 H -0.0688 1.8368 4.9058 0
M  V30 56 H -3.4756 1.4642 2.8866 0
M  V30 57 H -3.3816 0.5056 4.3613 0
M  V30 58 H -2.5365 2.051 4.2674 0
M  V30 59 H 1.2773 5.5301 1.8908 0
M  V30 60 H 0.9219 3.8671 5.8277 0
M  V30 61 H 2.9407 1.1957 -3.8347 0
M  V30 62 H 1.5896 0.1245 -3.5082 0
M  V30 63 H 6.0175 -3.1996 0.4722 0
M  V30 64 H 4.8147 -4.4941 0.2902 0
M  V30 65 H -6.5033 -0.6198 2.2113 0
M  V30 66 H -5.592 0.8674 2.0337 0
M  V30 67 H -5.0969 0.9754 -4.681 0
M  V30 68 H -5.4849 -0.761 -4.5728 0
M  V30 69 H 1.5999 5.7307 4.3404 0
M  V30 70 H 4.5817 -4.7126 2.7147 0
M  V30 71 H 6.2659 -4.942 2.2412 0
M  V30 72 H -3.3974 -1.31 -5.8153 0
M  V30 73 H -4.5001 -0.3015 -6.7648 0
M  V30 74 H 5.0407 -2.4059 3.4704 0
M  V30 75 H 6.02 -3.602 4.3069 0
M  V30 76 H -3.1432 1.7244 -6.1298 0
M  V30 77 H -2.0373 0.6932 -5.22 0
M  V30 78 H 7.4142 -1.6846 3.7632 0
M  V30 79 H 7.959 -3.0568 2.7841 0
M  V30 80 H 6.9814 -1.7666 2.053 0
M  V30 81 H -1.1301 1.1853 -7.4625 0
M  V30 82 H -1.4614 -0.5489 -7.3125 0
M  V30 83 H -2.5685 0.4914 -8.2301 0
M  V30 END ATOM
M  V30 BEGIN BOND
M  V30 1 2 1 2
M  V30 2 1 2 3
M  V30 3 1 2 4
M  V30 4 1 3 5
M  V30 5 1 3 6
M  V30 6 1 4 7
M  V30 7 1 4 8
M  V30 8 2 5 9
M  V30 9 1 5 10
M  V30 10 1 6 11
M  V30 11 2 7 12
M  V30 12 1 8 13
M  V30 13 1 10 14
M  V30 14 1 10 15
M  V30 15 1 11 16
M  V30 16 1 11 17
M  V30 17 1 13 18
M  V30 18 1 13 19
M  V30 19 2 14 20
M  V30 20 1 14 21
M  V30 21 1 15 22
M  V30 22 1 16 23
M  V30 23 1 17 24
M  V30 24 1 18 25
M  V30 25 1 19 26
M  V30 26 1 20 27
M  V30 27 2 21 28
M  V30 28 2 23 29
M  V30 29 1 23 30
M  V30 30 1 24 31
M  V30 31 2 25 32
M  V30 32 1 25 33
M  V30 33 1 26 34
M  V30 34 2 27 35
M  V30 35 1 31 36
M  V30 36 1 34 37
M  V30 37 1 36 38
M  V30 38 1 37 39
M  V30 39 1 38 40
M  V30 40 1 39 41
M  V30 41 1 7 10
M  V30 42 1 28 35
M  V30 43 1 6 42
M  V30 44 1 6 43
M  V30 45 1 8 44
M  V30 46 1 8 45
M  V30 47 1 11 46
M  V30 48 1 13 47
M  V30 49 1 15 48
M  V30 50 1 15 49
M  V30 51 1 17 50
M  V30 52 1 17 51
M  V30 53 1 19 52
M  V30 54 1 19 53
M  V30 55 1 20 54
M  V30 56 1 21 55
M  V30 57 1 22 56
M  V30 58 1 22 57
M  V30 59 1 22 58
M  V30 60 1 27 59
M  V30 61 1 28 60
M  V30 62 1 30 61
M  V30 63 1 30 62
M  V30 64 1 31 63
M  V30 65 1 31 64
M  V30 66 1 33 65
M  V30 67 1 33 66
M  V30 68 1 34 67
M  V30 69 1 34 68
M  V30 70 1 35 69
M  V30 71 1 36 70
M  V30 72 1 36 71
M  V30 73 1 37 72
M  V30 74 1 37 73
M  V30 75 1 38 74
M  V30 76 1 38 75
M  V30 77 1 39 76
M  V30 78 1 39 77
M  V30 79 1 40 78
M  V30 80 1 40 79
M  V30 81 1 40 80
M  V30 82 1 41 81
M  V30 83 1 41 82
M  V30 84 1 41 83
M  V30 END BOND
M  V30 END CTAB
M  END
>  <level_0>
1549

>  <index>
1549

>  <NO.>
1550

>  <Name>
difebarbamate

>  <SMILES>
CCCCOCC(CN1C(=O)N(CC(COCCCC)OC(N)=O)C(=O)C(CC)(c2ccccc2)C1=O)OC(N)=O

>  <logBB>


>  <Class>
1

>  <MW>
578.3

>  <nHBAcc>
9

>  <nHBDon>
2

>  <SLogP>
2.69

>  <TopoPSA>
180.79

>  <MMFF94 Energy>
-165.3

$$$$
CCCCSc1ccc(C(SCCN(C)C)c2ccccc2)cc1
Actelion Java MolfileCreator 2.0

  0  0  0  0  0  0              0 V3000
M  V30 BEGIN CTAB
M  V30 COUNTS 53 54 0 0 0
M  V30 BEGIN ATOM
M  V30 1 S -0.8029 3.6169 2.7318 0
M  V30 2 C -0.0752 2.6055 1.4569 0
M  V30 3 C -2.5769 3.2753 2.4559 0
M  V30 4 C -0.3383 2.8348 0.1054 0
M  V30 5 C 0.7951 1.5753 1.8169 0
M  V30 6 C -2.952 1.8515 2.8654 0
M  V30 7 C 0.2392 2.0232 -0.8755 0
M  V30 8 C 1.3737 0.7628 0.8376 0
M  V30 9 C -4.4523 1.6098 2.6877 0
M  V30 10 C 1.0968 0.9685 -0.5241 0
M  V30 11 C -4.8392 0.1941 3.085 0
M  V30 12 C 1.7372 0.0637 -1.5691 0 CFG=1
M  V30 13 S 0.4943 -0.799 -2.6287 0
M  V30 14 C 2.8143 0.7805 -2.3827 0
M  V30 15 C -0.4009 -1.782 -1.3703 0
M  V30 16 C 4.1534 0.7115 -1.9553 0
M  V30 17 C 2.524 1.5532 -3.5201 0
M  V30 18 C 0.3897 -3.0214 -0.9204 0
M  V30 19 C 5.1662 1.374 -2.6523 0
M  V30 20 C 3.5384 2.2146 -4.2169 0
M  V30 21 N -0.2635 -3.7684 0.1751 0
M  V30 22 C 4.8584 2.1235 -3.7841 0
M  V30 23 C 0.6432 -4.802 0.6843 0
M  V30 24 C -1.5196 -4.388 -0.2546 0
M  V30 25 H -2.8396 3.4669 1.4108 0
M  V30 26 H -3.1386 3.9925 3.0644 0
M  V30 27 H -0.9879 3.6503 -0.2015 0
M  V30 28 H 1.0252 1.391 2.8638 0
M  V30 29 H -2.4018 1.1211 2.2607 0
M  V30 30 H -2.6811 1.6785 3.9145 0
M  V30 31 H 0.0107 2.2237 -1.9198 0
M  V30 32 H 2.041 -0.0368 1.152 0
M  V30 33 H -5.0196 2.3223 3.2979 0
M  V30 34 H -4.7353 1.7797 1.6424 0
M  V30 35 H -5.9148 0.0432 2.9505 0
M  V30 36 H -4.3132 -0.5432 2.4704 0
M  V30 37 H -4.5977 0.0016 4.1352 0
M  V30 38 H 2.2503 -0.7536 -1.0501 0
M  V30 39 H -1.3372 -2.0899 -1.8463 0
M  V30 40 H -0.6709 -1.1507 -0.5187 0
M  V30 41 H 4.4186 0.1415 -1.0674 0
M  V30 42 H 1.5022 1.6484 -3.8803 0
M  V30 43 H 0.5695 -3.6826 -1.7787 0
M  V30 44 H 1.3709 -2.694 -0.5585 0
M  V30 45 H 6.195 1.3081 -2.3083 0
M  V30 46 H 3.2946 2.8031 -5.0975 0
M  V30 47 H 5.6456 2.6402 -4.3263 0
M  V30 48 H 1.5666 -4.3515 1.0653 0
M  V30 49 H 0.9078 -5.5356 -0.0857 0
M  V30 50 H 0.1873 -5.3339 1.527 0
M  V30 51 H -1.3786 -5.058 -1.1101 0
M  V30 52 H -2.2636 -3.6312 -0.522 0
M  V30 53 H -1.9623 -4.967 0.5641 0
M  V30 END ATOM
M  V30 BEGIN BOND
M  V30 1 1 1 2
M  V30 2 1 1 3
M  V30 3 2 2 4
M  V30 4 1 2 5
M  V30 5 1 3 6
M  V30 6 1 4 7
M  V30 7 2 5 8
M  V30 8 1 6 9
M  V30 9 2 7 10
M  V30 10 1 9 11
M  V30 11 1 10 12
M  V30 12 1 12 13
M  V30 13 1 12 14
M  V30 14 1 13 15
M  V30 15 2 14 16
M  V30 16 1 14 17
M  V30 17 1 15 18
M  V30 18 1 16 19
M  V30 19 2 17 20
M  V30 20 1 18 21
M  V30 21 2 19 22
M  V30 22 1 21 23
M  V30 23 1 21 24
M  V30 24 1 8 10
M  V30 25 1 20 22
M  V30 26 1 3 25
M  V30 27 1 3 26
M  V30 28 1 4 27
M  V30 29 1 5 28
M  V30 30 1 6 29
M  V30 31 1 6 30
M  V30 32 1 7 31
M  V30 33 1 8 32
M  V30 34 1 9 33
M  V30 35 1 9 34
M  V30 36 1 11 35
M  V30 37 1 11 36
M  V30 38 1 11 37
M  V30 39 1 12 38
M  V30 40 1 15 39
M  V30 41 1 15 40
M  V30 42 1 16 41
M  V30 43 1 17 42
M  V30 44 1 18 43
M  V30 45 1 18 44
M  V30 46 1 19 45
M  V30 47 1 20 46
M  V30 48 1 22 47
M  V30 49 1 23 48
M  V30 50 1 23 49
M  V30 51 1 23 50
M  V30 52 1 24 51
M  V30 53 1 24 52
M  V30 54 1 24 53
M  V30 END BOND
M  V30 BEGIN COLLECTION
M  V30 MDLV30/STERAC1 ATOMS=(1 12)
M  V30 END COLLECTION
M  V30 END CTAB
M  END
>  <level_0>
1552

>  <index>
1552

>  <NO.>
1553

>  <Name>
captodiame

>  <SMILES>
CCCCSc1ccc(C(SCCN(C)C)c2ccccc2)cc1

>  <logBB>


>  <Class>
1

>  <MW>
359.17

>  <nHBAcc>
3

>  <nHBDon>
0

>  <SLogP>
5.96

>  <TopoPSA>
3.24

>  <MMFF94 Energy>
76.579

$$$$
CCCC[C@@H]1CC(=O)[C@]2(O)O[C@@H]3[C@@H](NC)[C@@H](O)[C@@H](NC)[C@H](O)[C@H]3O[C@@H]2O1
Actelion Java MolfileCreator 2.0

  0  0  0  0  0  0              0 V3000
M  V30 BEGIN CTAB
M  V30 COUNTS 56 58 0 0 0
M  V30 BEGIN ATOM
M  V30 1 O 1.8337 -4.1495 1.2753 0
M  V30 2 C 1.1145 -3.2725 0.7882 0
M  V30 3 C 1.6992 -2.0215 0.1178 0 CFG=1
M  V30 4 C -0.3854 -3.347 0.8699 0
M  V30 5 O 1.5117 -0.9236 1.0199 0
M  V30 6 O 3.0901 -2.2156 -0.1172 0
M  V30 7 C 0.9179 -1.8117 -1.2193 0 CFG=2
M  V30 8 C -0.9182 -3.1738 -0.544 0 CFG=2
M  V30 9 C 1.8684 0.3257 0.3759 0 CFG=1
M  V30 10 O 1.2267 -0.5338 -1.8069 0
M  V30 11 O -0.5062 -1.9043 -1.0535 0
M  V30 12 C -2.4503 -3.2588 -0.6209 0
M  V30 13 C 0.9858 0.5345 -0.8661 0 CFG=2
M  V30 14 C 1.6685 1.4808 1.3839 0 CFG=1
M  V30 15 C -3.1871 -2.1517 0.1445 0
M  V30 16 C 1.2693 1.884 -1.547 0 CFG=1
M  V30 17 N 2.4757 1.2067 2.5981 0
M  V30 18 C 2.0083 2.8312 0.7048 0 CFG=2
M  V30 19 C -4.7116 -2.2753 0.0639 0
M  V30 20 O 0.3201 2.0709 -2.6108 0
M  V30 21 C 1.135 3.0653 -0.5503 0 CFG=1
M  V30 22 C 2.0635 1.9981 3.746 0
M  V30 23 O 3.3862 2.877 0.3061 0
M  V30 24 C -5.2686 -2.0458 -1.3326 0
M  V30 25 N 1.5527 4.3567 -1.168 0
M  V30 26 C 0.4081 5.1707 -1.5597 0
M  V30 27 H -0.6824 -4.3135 1.2887 0
M  V30 28 H -0.7116 -2.5501 1.5455 0
M  V30 29 H 3.3987 -2.7776 0.6199 0
M  V30 30 H 1.2287 -2.5636 -1.9547 0
M  V30 31 H -0.5105 -3.9578 -1.1969 0
M  V30 32 H 2.9258 0.2637 0.0851 0
M  V30 33 H -2.7788 -4.24 -0.2574 0
M  V30 34 H -2.7306 -3.1952 -1.6791 0
M  V30 35 H -0.0774 0.4951 -0.5928 0
M  V30 36 H 0.6098 1.4793 1.6799 0
M  V30 37 H -2.8822 -1.1667 -0.2281 0
M  V30 38 H -2.9087 -2.1911 1.2034 0
M  V30 39 H 2.266 1.8532 -2.0058 0
M  V30 40 H 2.3852 0.2117 2.8169 0
M  V30 41 H 1.8466 3.6522 1.4139 0
M  V30 42 H -5.0266 -3.2608 0.4261 0
M  V30 43 H -5.1547 -1.5334 0.7394 0
M  V30 44 H 0.7018 2.724 -3.2203 0
M  V30 45 H 0.0873 3.1338 -0.2255 0
M  V30 46 H 2.666 1.7151 4.6151 0
M  V30 47 H 2.2212 3.0675 3.5804 0
M  V30 48 H 1.0126 1.8244 3.999 0
M  V30 49 H 3.5102 3.7816 -0.0402 0
M  V30 50 H -6.3631 -2.0429 -1.3039 0
M  V30 51 H -4.9381 -1.0828 -1.7345 0
M  V30 52 H -4.959 -2.835 -2.0237 0
M  V30 53 H 2.1381 4.1784 -1.9843 0
M  V30 54 H 0.7645 6.1036 -2.0076 0
M  V30 55 H -0.199 5.4386 -0.6888 0
M  V30 56 H -0.2245 4.6665 -2.2956 0
M  V30 END ATOM
M  V30 BEGIN BOND
M  V30 1 2 1 2
M  V30 2 1 2 3
M  V30 3 1 2 4
M  V30 4 1 3 5
M  V30 5 1 3 6
M  V30 6 1 3 7
M  V30 7 1 4 8
M  V30 8 1 5 9
M  V30 9 1 7 10
M  V30 10 1 7 11
M  V30 11 1 8 12
M  V30 12 1 9 13
M  V30 13 1 9 14
M  V30 14 1 12 15
M  V30 15 1 13 16
M  V30 16 1 14 17
M  V30 17 1 14 18
M  V30 18 1 15 19
M  V30 19 1 16 20
M  V30 20 1 16 21
M  V30 21 1 17 22
M  V30 22 1 18 23
M  V30 23 1 19 24
M  V30 24 1 21 25
M  V30 25 1 25 26
M  V30 26 1 8 11
M  V30 27 1 10 13
M  V30 28 1 18 21
M  V30 29 1 4 27
M  V30 30 1 4 28
M  V30 31 1 6 29
M  V30 32 1 7 30
M  V30 33 1 8 31
M  V30 34 1 9 32
M  V30 35 1 12 33
M  V30 36 1 12 34
M  V30 37 1 13 35
M  V30 38 1 14 36
M  V30 39 1 15 37
M  V30 40 1 15 38
M  V30 41 1 16 39
M  V30 42 1 17 40
M  V30 43 1 18 41
M  V30 44 1 19 42
M  V30 45 1 19 43
M  V30 46 1 20 44
M  V30 47 1 21 45
M  V30 48 1 22 46
M  V30 49 1 22 47
M  V30 50 1 22 48
M  V30 51 1 23 49
M  V30 52 1 24 50
M  V30 53 1 24 51
M  V30 54 1 24 52
M  V30 55 1 25 53
M  V30 56 1 26 54
M  V30 57 1 26 55
M  V30 58 1 26 56
M  V30 END BOND
M  V30 BEGIN COLLECTION
M  V30 MDLV30/STEABS ATOMS=(9 3 7 8 9 13 14 16 18 21)
M  V30 END COLLECTION
M  V30 END CTAB
M  END
>  <level_0>
1553

>  <index>
1553

>  <NO.>
1554

>  <Name>
trospectomycin

>  <SMILES>
CCCC[C@@H]1CC(=O)[C@]2(O)O[C@@H]3[C@@H](NC)[C@@H](O)[C@@H](NC)[C@H](O)[C@H]3O[C@@H]2O1

>  <logBB>


>  <Class>
-1

>  <MW>
374.21

>  <nHBAcc>
9

>  <nHBDon>
5

>  <SLogP>
-1.76

>  <TopoPSA>
129.51

>  <MMFF94 Energy>
199.5

$$$$
CCCN(CCC)C(=O)Cc1c(-c2ccc(Cl)cc2)nc2ccc(Cl)cn12
Actelion Java MolfileCreator 2.0

  0  0  0  0  0  0              0 V3000
M  V30 BEGIN CTAB
M  V30 COUNTS 50 52 0 0 0
M  V30 BEGIN ATOM
M  V30 1 Cl -3.2201 -4.0264 -3.2201 0
M  V30 2 C -1.9938 -2.8271 -3.126 0
M  V30 3 C -1.3074 -2.6102 -1.993 0
M  V30 4 C -1.6972 -2.0338 -4.3056 0
M  V30 5 N -0.319 -1.6243 -1.9692 0
M  V30 6 C -0.7315 -1.0959 -4.2872 0
M  V30 7 C 0.0133 -0.8711 -3.0951 0
M  V30 8 C 0.5045 -1.1844 -0.9402 0
M  V30 9 N 1.0151 -0.0583 -2.8563 0
M  V30 10 C 1.3655 -0.2814 -1.5494 0
M  V30 11 C 0.3942 -1.6529 0.4803 0
M  V30 12 C 2.476 0.4238 -0.9354 0
M  V30 13 C -0.9851 -1.3626 1.0657 0
M  V30 14 C 3.4252 -0.2443 -0.151 0
M  V30 15 C 2.6172 1.8014 -1.1532 0
M  V30 16 O -1.8034 -2.2852 1.1488 0
M  V30 17 N -1.3064 -0.0727 1.474 0
M  V30 18 C 4.4794 0.4618 0.4361 0
M  V30 19 C 3.6705 2.5083 -0.567 0
M  V30 20 C -0.3658 1.0472 1.5803 0
M  V30 21 C -2.6955 0.1874 1.8636 0
M  V30 22 C 4.594 1.8353 0.2293 0
M  V30 23 C 0.0435 1.3597 3.0235 0
M  V30 24 C -3.6543 0.2587 0.6693 0
M  V30 25 Cl 5.8887 2.7033 0.9568 0
M  V30 26 C 0.8795 0.2617 3.6628 0
M  V30 27 C -3.3456 1.4026 -0.2845 0
M  V30 28 H -1.4867 -3.1781 -1.0902 0
M  V30 29 H -2.2699 -2.2154 -5.2098 0
M  V30 30 H -0.4968 -0.5028 -5.1637 0
M  V30 31 H 1.1576 -1.217 1.1265 0
M  V30 32 H 0.5587 -2.737 0.5155 0
M  V30 33 H 3.3637 -1.3198 -0.0035 0
M  V30 34 H 1.9033 2.3274 -1.785 0
M  V30 35 H 5.21 -0.0659 1.0435 0
M  V30 36 H 3.7655 3.5765 -0.7422 0
M  V30 37 H 0.5304 0.858 0.9959 0
M  V30 38 H -0.8458 1.928 1.1396 0
M  V30 39 H -3.0212 -0.6199 2.5305 0
M  V30 40 H -2.7494 1.1175 2.4397 0
M  V30 41 H 0.6293 2.2866 3.0251 0
M  V30 42 H -0.8398 1.5429 3.6448 0
M  V30 43 H -3.6416 -0.6824 0.1086 0
M  V30 44 H -4.6744 0.3858 1.0507 0
M  V30 45 H 1.1671 0.552 4.6784 0
M  V30 46 H 0.3232 -0.6778 3.7286 0
M  V30 47 H 1.7967 0.085 3.0926 0
M  V30 48 H -4.1073 1.4538 -1.069 0
M  V30 49 H -3.3363 2.3622 0.2417 0
M  V30 50 H -2.3759 1.2634 -0.7723 0
M  V30 END ATOM
M  V30 BEGIN BOND
M  V30 1 1 1 2
M  V30 2 2 2 3
M  V30 3 1 2 4
M  V30 4 1 3 5
M  V30 5 2 4 6
M  V30 6 1 5 7
M  V30 7 1 5 8
M  V30 8 2 7 9
M  V30 9 2 8 10
M  V30 10 1 8 11
M  V30 11 1 10 12
M  V30 12 1 11 13
M  V30 13 2 12 14
M  V30 14 1 12 15
M  V30 15 2 13 16
M  V30 16 1 13 17
M  V30 17 1 14 18
M  V30 18 2 15 19
M  V30 19 1 17 20
M  V30 20 1 17 21
M  V30 21 2 18 22
M  V30 22 1 20 23
M  V30 23 1 21 24
M  V30 24 1 22 25
M  V30 25 1 23 26
M  V30 26 1 24 27
M  V30 27 1 6 7
M  V30 28 1 9 10
M  V30 29 1 19 22
M  V30 30 1 3 28
M  V30 31 1 4 29
M  V30 32 1 6 30
M  V30 33 1 11 31
M  V30 34 1 11 32
M  V30 35 1 14 33
M  V30 36 1 15 34
M  V30 37 1 18 35
M  V30 38 1 19 36
M  V30 39 1 20 37
M  V30 40 1 20 38
M  V30 41 1 21 39
M  V30 42 1 21 40
M  V30 43 1 23 41
M  V30 44 1 23 42
M  V30 45 1 24 43
M  V30 46 1 24 44
M  V30 47 1 26 45
M  V30 48 1 26 46
M  V30 49 1 26 47
M  V30 50 1 27 48
M  V30 51 1 27 49
M  V30 52 1 27 50
M  V30 END BOND
M  V30 END CTAB
M  END
>  <level_0>
1556

>  <index>
1556

>  <NO.>
1557

>  <Name>
alpidem

>  <SMILES>
CCCN(CCC)C(=O)Cc1c(-c2ccc(Cl)cc2)nc2ccc(Cl)cn12

>  <logBB>


>  <Class>
1

>  <MW>
403.12

>  <nHBAcc>
2

>  <nHBDon>
0

>  <SLogP>
5.5

>  <TopoPSA>
37.61

>  <MMFF94 Energy>
26.433

$$$$
CCN(CC)C(=O)COc1cc2c(O)c3c(O)c(C)c4c(c13)C(=O)[C@@](C)(O/C=C/[C@H](OC)[C@@H](C)[C@@H](OC(C)=O)[C@H](C)[C@H](O)[C@H](C)[C@@H](O)[C@@H](C)/C=C/C=C(/C)C(=O)N2)O4
Actelion Java MolfileCreator 2.0

  0  0  0  0  0  0              0 V3000
M  V30 BEGIN CTAB
M  V30 COUNTS 116 119 0 0 0
M  V30 BEGIN ATOM
M  V30 1 O -4.5224 -3.1719 -0.1584 0
M  V30 2 C -3.5049 -3.742 -0.545 0
M  V30 3 N -2.2314 -3.3286 -0.2627 0
M  V30 4 C -3.6184 -5.0234 -1.2965 0
M  V30 5 C -1.8446 -2.1727 0.461 0
M  V30 6 C -2.8856 -5.4111 -2.3553 0
M  V30 7 C -4.7327 -5.898 -0.7791 0
M  V30 8 C -2.556 -0.9653 0.5401 0
M  V30 9 C -0.5947 -2.2351 1.0696 0
M  V30 10 C -1.8002 -4.8124 -3.0963 0
M  V30 11 O -3.7713 -0.8064 -0.0922 0
M  V30 12 C -2.0542 0.1845 1.2213 0
M  V30 13 C -0.056 -1.132 1.7452 0
M  V30 14 C -1.6471 -3.5905 -3.6318 0
M  V30 15 C -2.7695 1.4311 1.2781 0
M  V30 16 C -0.7824 0.0954 1.8559 0
M  V30 17 O 1.2057 -1.149 2.2735 0
M  V30 18 C -2.4915 -2.3361 -3.561 0 CFG=1
M  V30 19 O -3.9855 1.5849 0.6481 0
M  V30 20 C -2.2969 2.5713 1.935 0
M  V30 21 C -0.3408 1.2692 2.5176 0
M  V30 22 C 1.9722 -2.3443 2.2405 0
M  V30 23 C -1.85 -1.0763 -4.237 0 CFG=2
M  V30 24 C -3.8723 -2.593 -4.1867 0
M  V30 25 C -1.0619 2.4593 2.5332 0
M  V30 26 C -3.0636 3.8593 1.9265 0
M  V30 27 C 0.8423 1.5964 3.307 0
M  V30 28 C 3.4005 -2.0683 2.7124 0
M  V30 29 O -1.697 -1.3187 -5.6416 0
M  V30 30 C -0.5159 -0.5075 -3.6434 0 CFG=2
M  V30 31 O -0.4715 3.5117 3.1906 0
M  V30 32 O 1.6016 0.8164 3.8543 0
M  V30 33 C 0.9018 3.1143 3.3974 0 CFG=2
M  V30 34 O 4.308 -2.0059 1.8755 0
M  V30 35 N 3.6436 -1.9415 4.0769 0
M  V30 36 C -0.2249 0.9593 -4.1356 0 CFG=1
M  V30 37 C 0.71 -1.3706 -3.9983 0
M  V30 38 O 1.7928 3.5524 2.3568 0
M  V30 39 C 1.3752 3.5695 4.7703 0
M  V30 40 C 2.6019 -1.9581 5.1082 0
M  V30 41 C 5.0217 -1.7119 4.5098 0
M  V30 42 O -0.8782 1.1742 -5.4005 0
M  V30 43 C -0.6109 2.1289 -3.1717 0 CFG=2
M  V30 44 C 1.518 4.8021 1.8735 0
M  V30 45 C 2.5417 -3.2833 5.8496 0
M  V30 46 C 5.848 -2.9896 4.5385 0
M  V30 47 C 0.5951 2.534 -2.2654 0 CFG=2
M  V30 48 C -1.8971 1.8633 -2.3841 0
M  V30 49 C 1.4606 5.0843 0.5669 0
M  V30 50 O 0.9911 1.3909 -1.468 0
M  V30 51 C 0.3501 3.7308 -1.2909 0 CFG=1
M  V30 52 C 1.6747 4.0909 -0.5464 0 CFG=1
M  V30 53 C 2.2456 0.8975 -1.6803 0
M  V30 54 C -0.2303 4.9492 -2.029 0
M  V30 55 O 2.5821 4.6732 -1.4904 0
M  V30 56 O 3.0232 1.2734 -2.545 0
M  V30 57 C 2.5487 -0.1838 -0.694 0
M  V30 58 C 3.9471 4.4807 -1.1354 0
M  V30 59 H -1.4866 -3.9383 -0.5796 0
M  V30 60 H -3.1208 -6.3965 -2.7678 0
M  V30 61 H -5.7051 -5.4211 -0.9417 0
M  V30 62 H -4.7582 -6.8749 -1.2735 0
M  V30 63 H -4.6073 -6.0799 0.2937 0
M  V30 64 H -0.0396 -3.1641 0.9964 0
M  V30 65 H -1.0412 -5.5478 -3.3784 0
M  V30 66 H -4.2165 -1.684 -0.1094 0
M  V30 67 H -0.7962 -3.5029 -4.3072 0
M  V30 68 H -2.6371 -2.0663 -2.5133 0
M  V30 69 H -4.1863 0.7365 0.1997 0
M  V30 70 H 2.0605 -2.7176 1.2128 0
M  V30 71 H 1.5187 -3.123 2.8631 0
M  V30 72 H -2.6068 -0.2878 -4.1513 0
M  V30 73 H -3.7897 -2.9189 -5.2295 0
M  V30 74 H -4.429 -3.3609 -3.6422 0
M  V30 75 H -4.4834 -1.6838 -4.1653 0
M  V30 76 H -2.6883 4.5642 2.6752 0
M  V30 77 H -2.9867 4.3333 0.9428 0
M  V30 78 H -4.119 3.6849 2.1612 0
M  V30 79 H -1.4315 -0.447 -6.0083 0
M  V30 80 H -0.5782 -0.5123 -2.5505 0
M  V30 81 H 0.8422 1.0623 -4.363 0
M  V30 82 H 0.7167 -2.3007 -3.4252 0
M  V30 83 H 0.7536 -1.607 -5.0655 0
M  V30 84 H 1.6454 -0.8659 -3.7402 0
M  V30 85 H 2.4201 3.2913 4.9431 0
M  V30 86 H 0.7592 3.1367 5.5661 0
M  V30 87 H 1.3043 4.6581 4.8675 0
M  V30 88 H 1.6217 -1.7651 4.6686 0
M  V30 89 H 2.7938 -1.1376 5.8087 0
M  V30 90 H 5.0187 -1.2442 5.5003 0
M  V30 91 H 5.4906 -1.0 3.8203 0
M  V30 92 H -0.542 2.0174 -5.7575 0
M  V30 93 H -0.8247 2.997 -3.8093 0
M  V30 94 H 1.3548 5.5515 2.6378 0
M  V30 95 H 3.4554 -3.4573 6.4251 0
M  V30 96 H 2.4138 -4.1193 5.1548 0
M  V30 97 H 1.7014 -3.2865 6.5509 0
M  V30 98 H 5.896 -3.4569 3.55 0
M  V30 99 H 5.4265 -3.7237 5.2306 0
M  V30 100 H 6.871 -2.7697 4.8592 0
M  V30 101 H 1.4035 2.8329 -2.9452 0
M  V30 102 H -2.2089 2.7431 -1.8141 0
M  V30 103 H -2.7244 1.626 -3.0588 0
M  V30 104 H -1.781 1.044 -1.6733 0
M  V30 105 H 1.2532 6.1089 0.27 0
M  V30 106 H -0.3692 3.4083 -0.5272 0
M  V30 107 H 2.1121 3.1733 -0.1376 0
M  V30 108 H 0.4138 5.2584 -2.8587 0
M  V30 109 H -1.2221 4.7384 -2.4379 0
M  V30 110 H -0.3552 5.8051 -1.3593 0
M  V30 111 H 2.57 0.2379 0.3131 0
M  V30 112 H 1.8019 -0.9765 -0.7751 0
M  V30 113 H 3.5304 -0.6121 -0.9147 0
M  V30 114 H 4.1878 3.4147 -1.0918 0
M  V30 115 H 4.568 4.9443 -1.9066 0
M  V30 116 H 4.1726 4.9571 -0.1768 0
M  V30 END ATOM
M  V30 BEGIN BOND
M  V30 1 2 1 2
M  V30 2 1 2 3
M  V30 3 1 2 4
M  V30 4 1 3 5
M  V30 5 2 4 6
M  V30 6 1 4 7
M  V30 7 2 5 8
M  V30 8 1 5 9
M  V30 9 1 6 10
M  V30 10 1 8 11
M  V30 11 1 8 12
M  V30 12 2 9 13
M  V30 13 2 10 14
M  V30 14 2 12 15
M  V30 15 1 12 16
M  V30 16 1 13 17
M  V30 17 1 14 18
M  V30 18 1 15 19
M  V30 19 1 15 20
M  V30 20 2 16 21
M  V30 21 1 17 22
M  V30 22 1 18 23
M  V30 23 1 18 24
M  V30 24 2 20 25
M  V30 25 1 20 26
M  V30 26 1 21 27
M  V30 27 1 22 28
M  V30 28 1 23 29
M  V30 29 1 23 30
M  V30 30 1 25 31
M  V30 31 2 27 32
M  V30 32 1 27 33
M  V30 33 2 28 34
M  V30 34 1 28 35
M  V30 35 1 30 36
M  V30 36 1 30 37
M  V30 37 1 33 38
M  V30 38 1 33 39
M  V30 39 1 35 40
M  V30 40 1 35 41
M  V30 41 1 36 42
M  V30 42 1 36 43
M  V30 43 1 38 44
M  V30 44 1 40 45
M  V30 45 1 41 46
M  V30 46 1 43 47
M  V30 47 1 43 48
M  V30 48 2 44 49
M  V30 49 1 47 50
M  V30 50 1 47 51
M  V30 51 1 49 52
M  V30 52 1 50 53
M  V30 53 1 51 54
M  V30 54 1 52 55
M  V30 55 2 53 56
M  V30 56 1 53 57
M  V30 57 1 55 58
M  V30 58 1 13 16
M  V30 59 1 21 25
M  V30 60 1 31 33
M  V30 61 1 51 52
M  V30 62 1 3 59
M  V30 63 1 6 60
M  V30 64 1 7 61
M  V30 65 1 7 62
M  V30 66 1 7 63
M  V30 67 1 9 64
M  V30 68 1 10 65
M  V30 69 1 11 66
M  V30 70 1 14 67
M  V30 71 1 18 68
M  V30 72 1 19 69
M  V30 73 1 22 70
M  V30 74 1 22 71
M  V30 75 1 23 72
M  V30 76 1 24 73
M  V30 77 1 24 74
M  V30 78 1 24 75
M  V30 79 1 26 76
M  V30 80 1 26 77
M  V30 81 1 26 78
M  V30 82 1 29 79
M  V30 83 1 30 80
M  V30 84 1 36 81
M  V30 85 1 37 82
M  V30 86 1 37 83
M  V30 87 1 37 84
M  V30 88 1 39 85
M  V30 89 1 39 86
M  V30 90 1 39 87
M  V30 91 1 40 88
M  V30 92 1 40 89
M  V30 93 1 41 90
M  V30 94 1 41 91
M  V30 95 1 42 92
M  V30 96 1 43 93
M  V30 97 1 44 94
M  V30 98 1 45 95
M  V30 99 1 45 96
M  V30 100 1 45 97
M  V30 101 1 46 98
M  V30 102 1 46 99
M  V30 103 1 46 100
M  V30 104 1 47 101
M  V30 105 1 48 102
M  V30 106 1 48 103
M  V30 107 1 48 104
M  V30 108 1 49 105
M  V30 109 1 51 106
M  V30 110 1 52 107
M  V30 111 1 54 108
M  V30 112 1 54 109
M  V30 113 1 54 110
M  V30 114 1 57 111
M  V30 115 1 57 112
M  V30 116 1 57 113
M  V30 117 1 58 114
M  V30 118 1 58 115
M  V30 119 1 58 116
M  V30 END BOND
M  V30 BEGIN COLLECTION
M  V30 MDLV30/STEABS ATOMS=(9 18 23 30 33 36 43 47 51 52)
M  V30 END COLLECTION
M  V30 END CTAB
M  END
>  <level_0>
1580

>  <index>
1580

>  <NO.>
1581

>  <Name>
rifamide

>  <SMILES>
CCN(CC)C(=O)COc1cc2c(O)c3c(O)c(C)c4c(c13)C(=O)[C@@](C)(O/C=C/[C@H](OC)[C@@H](C)[C@@H](OC(C)=O)[C@H](C)[C@H](O)[C@H](C)[C@@H](O)[C@@H](C)/C=C/C=C(/C)C(=O)N2)O4

>  <logBB>


>  <Class>
-1

>  <MW>
810.39

>  <nHBAcc>
13

>  <nHBDon>
5

>  <SLogP>
5.3

>  <TopoPSA>
210.62

>  <MMFF94 Energy>
153.47

$$$$
CCN(CC)C(=O)N1CCN(CCCc2nc3c(c(=O)n(C)c(=O)n3C)n2C)CC1
Actelion Java MolfileCreator 2.0

  0  0  0  0  0  0              0 V3000
M  V30 BEGIN CTAB
M  V30 COUNTS 63 65 0 0 0
M  V30 BEGIN ATOM
M  V30 1 O 0.393 -0.3143 -8.5948 0
M  V30 2 C 0.3528 0.2543 -7.4995 0
M  V30 3 N -0.1232 1.5771 -7.3869 0
M  V30 4 N 0.7716 -0.3735 -6.3267 0
M  V30 5 C -0.2113 2.3132 -6.2013 0
M  V30 6 C -0.5544 2.2099 -8.6179 0
M  V30 7 C 0.7042 0.3106 -5.1375 0
M  V30 8 C 1.2731 -1.7351 -6.3542 0
M  V30 9 O -0.6315 3.4647 -6.1306 0
M  V30 10 C 0.2403 1.5863 -5.0655 0
M  V30 11 N 1.0724 -0.1637 -3.9185 0
M  V30 12 N 0.3248 1.9236 -3.7418 0
M  V30 13 C 0.8325 0.8256 -3.0715 0
M  V30 14 C -0.0551 3.1985 -3.1817 0
M  V30 15 C 1.0674 0.7977 -1.5916 0
M  V30 16 C 1.5483 -0.5698 -1.1006 0
M  V30 17 C 1.8878 -0.574 0.3954 0
M  V30 18 N 0.7858 -0.1372 1.2702 0
M  V30 19 C 1.2838 0.0374 2.6577 0
M  V30 20 C -0.3303 -1.1194 1.2754 0
M  V30 21 C 0.17 0.4568 3.6439 0
M  V30 22 C -1.4571 -0.6997 2.2403 0
M  V30 23 N -0.9487 -0.4856 3.5913 0
M  V30 24 C -1.0489 -1.5171 4.5037 0
M  V30 25 O -1.1691 -2.6847 4.1315 0
M  V30 26 N -0.9999 -1.1723 5.847 0
M  V30 27 C -0.7477 -2.2381 6.8161 0
M  V30 28 C -1.4521 0.1181 6.376 0
M  V30 29 C 0.7438 -2.4886 6.9755 0
M  V30 30 C -2.9209 0.0788 6.7791 0
M  V30 31 H 0.2846 2.2273 -9.3213 0
M  V30 32 H -0.911 3.2314 -8.4649 0
M  V30 33 H -1.3596 1.6142 -9.0604 0
M  V30 34 H 1.2688 -2.151 -7.365 0
M  V30 35 H 2.3004 -1.7452 -5.9763 0
M  V30 36 H 0.6416 -2.3614 -5.7159 0
M  V30 37 H -1.1272 3.3392 -3.3416 0
M  V30 38 H 0.5169 3.9825 -3.6845 0
M  V30 39 H 0.1611 3.2271 -2.1126 0
M  V30 40 H 0.1328 1.064 -1.0843 0
M  V30 41 H 1.8146 1.5595 -1.3382 0
M  V30 42 H 0.7991 -1.338 -1.3271 0
M  V30 43 H 2.4525 -0.8598 -1.652 0
M  V30 44 H 2.2376 -1.5746 0.6813 0
M  V30 45 H 2.7399 0.1046 0.5338 0
M  V30 46 H 2.0599 0.812 2.6735 0
M  V30 47 H 1.7407 -0.8961 3.0131 0
M  V30 48 H -0.7673 -1.1986 0.2745 0
M  V30 49 H 0.0408 -2.113 1.5581 0
M  V30 50 H 0.6063 0.4975 4.6464 0
M  V30 51 H -0.2155 1.4499 3.3866 0
M  V30 52 H -1.9077 0.2428 1.9067 0
M  V30 53 H -2.2467 -1.4594 2.2489 0
M  V30 54 H -1.24 -3.1606 6.4897 0
M  V30 55 H -1.1782 -1.9655 7.7855 0
M  V30 56 H -1.3457 0.911 5.6339 0
M  V30 57 H -0.8211 0.3797 7.2324 0
M  V30 58 H 1.2576 -1.5827 7.3141 0
M  V30 59 H 1.1972 -2.7944 6.027 0
M  V30 60 H 0.921 -3.2795 7.7105 0
M  V30 61 H -3.1039 -0.6592 7.5658 0
M  V30 62 H -3.553 -0.1815 5.9236 0
M  V30 63 H -3.2371 1.0575 7.1535 0
M  V30 END ATOM
M  V30 BEGIN BOND
M  V30 1 2 1 2
M  V30 2 1 2 3
M  V30 3 1 2 4
M  V30 4 1 3 5
M  V30 5 1 3 6
M  V30 6 1 4 7
M  V30 7 1 4 8
M  V30 8 2 5 9
M  V30 9 1 5 10
M  V30 10 1 7 11
M  V30 11 1 10 12
M  V30 12 2 11 13
M  V30 13 1 12 14
M  V30 14 1 13 15
M  V30 15 1 15 16
M  V30 16 1 16 17
M  V30 17 1 17 18
M  V30 18 1 18 19
M  V30 19 1 18 20
M  V30 20 1 19 21
M  V30 21 1 20 22
M  V30 22 1 21 23
M  V30 23 1 23 24
M  V30 24 2 24 25
M  V30 25 1 24 26
M  V30 26 1 26 27
M  V30 27 1 26 28
M  V30 28 1 27 29
M  V30 29 1 28 30
M  V30 30 2 7 10
M  V30 31 1 12 13
M  V30 32 1 22 23
M  V30 33 1 6 31
M  V30 34 1 6 32
M  V30 35 1 6 33
M  V30 36 1 8 34
M  V30 37 1 8 35
M  V30 38 1 8 36
M  V30 39 1 14 37
M  V30 40 1 14 38
M  V30 41 1 14 39
M  V30 42 1 15 40
M  V30 43 1 15 41
M  V30 44 1 16 42
M  V30 45 1 16 43
M  V30 46 1 17 44
M  V30 47 1 17 45
M  V30 48 1 19 46
M  V30 49 1 19 47
M  V30 50 1 20 48
M  V30 51 1 20 49
M  V30 52 1 21 50
M  V30 53 1 21 51
M  V30 54 1 22 52
M  V30 55 1 22 53
M  V30 56 1 27 54
M  V30 57 1 27 55
M  V30 58 1 28 56
M  V30 59 1 28 57
M  V30 60 1 29 58
M  V30 61 1 29 59
M  V30 62 1 29 60
M  V30 63 1 30 61
M  V30 64 1 30 62
M  V30 65 1 30 63
M  V30 END BOND
M  V30 END CTAB
M  END
>  <level_0>
1581

>  <index>
1581

>  <NO.>
1582

>  <Name>
stacofylline

>  <SMILES>
CCN(CC)C(=O)N1CCN(CCCc2nc3c(c(=O)n(C)c(=O)n3C)n2C)CC1

>  <logBB>


>  <Class>
1

>  <MW>
419.26

>  <nHBAcc>
5

>  <nHBDon>
0

>  <SLogP>
-0.02

>  <TopoPSA>
88.61

>  <MMFF94 Energy>
-132.46

$$$$
CCN(CC)C(C)=NN=Cc1c2c(O)c3c(O)c(C)c4c(c3c1O)C(=O)C(C)(OC=CC(OC)C(C)C(OC(C)=O)C(C)C(O)C(C)C(O)C(C)C=CC=C(C)C(=O)N2)O4
Actelion Java MolfileCreator 2.0

  0  0  0  0  0  0              0 V3000
M  V30 BEGIN CTAB
M  V30 COUNTS 120 123 0 0 0
M  V30 BEGIN ATOM
M  V30 1 O -3.4062 -4.5965 0.0 0
M  V30 2 C -2.5852 -3.7186 0.2547 0
M  V30 3 N -2.0672 -3.5847 1.519 0
M  V30 4 C -2.154 -2.7636 -0.8076 0
M  V30 5 C -1.1767 -2.5824 1.9558 0
M  V30 6 C -0.9547 -2.9686 -1.3818 0
M  V30 7 C -3.1969 -1.7481 -1.1581 0
M  V30 8 C 0.1982 -2.8485 1.8586 0
M  V30 9 C -1.6051 -1.3758 2.502 0
M  V30 10 C -0.3787 -2.1994 -2.4639 0
M  V30 11 O 0.5575 -4.1118 1.4365 0
M  V30 12 C 1.2007 -1.8956 2.1868 0
M  V30 13 C -0.6433 -0.4098 2.8572 0
M  V30 14 C -3.0422 -1.0743 2.7235 0
M  V30 15 C 0.827 -2.4813 -2.9829 0
M  V30 16 C 2.6131 -2.1391 2.0302 0
M  V30 17 C 0.7669 -0.6337 2.6918 0
M  V30 18 O -1.1556 0.7577 3.3684 0
M  V30 19 N -3.9714 -1.9735 2.6182 0
M  V30 20 C 1.4375 -1.7417 -4.152 0
M  V30 21 O 3.0258 -3.353 1.5338 0
M  V30 22 C 3.6027 -1.185 2.3105 0
M  V30 23 C 1.8048 0.2868 2.968 0
M  V30 24 N -5.2195 -1.4192 2.8666 0
M  V30 25 C 2.8638 -1.1749 -3.86 0
M  V30 26 C 1.4407 -2.699 -5.3545 0
M  V30 27 C 3.1553 0.0311 2.7777 0
M  V30 28 C 5.0644 -1.4492 2.1042 0
M  V30 29 C 1.7911 1.6496 3.4575 0
M  V30 30 C -6.2459 -2.182 2.5789 0
M  V30 31 O 3.4178 -0.6794 -5.0891 0
M  V30 32 C 2.8731 -0.0448 -2.7536 0
M  V30 33 O 4.0047 1.0637 3.0918 0
M  V30 34 O 0.8258 2.1765 3.9863 0
M  V30 35 C 3.1694 2.254 3.1924 0
M  V30 36 N -7.5467 -1.6903 2.7408 0
M  V30 37 C -6.0401 -3.5869 2.0222 0
M  V30 38 C 3.8259 1.1431 -3.1044 0
M  V30 39 C 3.187 -0.6995 -1.4058 0
M  V30 40 O 3.2773 2.9573 1.9533 0
M  V30 41 C 3.6847 3.0716 4.3689 0
M  V30 42 C -8.7525 -2.4065 2.3322 0
M  V30 43 C -7.7596 -0.3497 3.3002 0
M  V30 44 O 3.3809 1.7258 -4.3373 0
M  V30 45 C 4.109 2.3327 -2.1309 0
M  V30 46 C 2.3139 3.8938 1.7293 0
M  V30 47 C -9.3015 -3.2359 3.4832 0
M  V30 48 C -7.668 0.7096 2.212 0
M  V30 49 C 3.0668 3.5041 -2.0209 0
M  V30 50 C 4.7245 1.9422 -0.7888 0
M  V30 51 C 1.4418 3.8315 0.717 0
M  V30 52 O 3.1019 4.2507 -3.2712 0
M  V30 53 C 1.577 3.1462 -1.7523 0
M  V30 54 C 1.2949 2.7158 -0.2881 0
M  V30 55 C 4.0661 5.1967 -3.4122 0
M  V30 56 C 0.6307 4.2947 -2.1751 0
M  V30 57 O -0.0638 2.2801 -0.1151 0
M  V30 58 O 4.895 5.5075 -2.5679 0
M  V30 59 C 3.9688 5.8204 -4.7704 0
M  V30 60 C -0.3465 1.0021 -0.6622 0
M  V30 61 H -2.6422 -4.0337 2.2273 0
M  V30 62 H -0.346 -3.8021 -1.0315 0
M  V30 63 H -3.359 -1.0645 -0.3189 0
M  V30 64 H -2.9316 -1.1417 -2.0272 0
M  V30 65 H -4.1493 -2.2387 -1.3867 0
M  V30 66 H -0.9582 -1.3825 -2.8849 0
M  V30 67 H -0.2634 -4.6303 1.3498 0
M  V30 68 H -3.3125 -0.0378 2.9953 0
M  V30 69 H 1.4066 -3.3124 -2.5816 0
M  V30 70 H -0.4687 1.3951 3.6521 0
M  V30 71 H 0.7945 -0.8964 -4.4342 0
M  V30 72 H 3.8438 -3.6207 1.9813 0
M  V30 73 H 3.5264 -1.9906 -3.5412 0
M  V30 74 H 2.1576 -3.5156 -5.2121 0
M  V30 75 H 0.4503 -3.1431 -5.5101 0
M  V30 76 H 1.7013 -2.1738 -6.2793 0
M  V30 77 H 5.4411 -2.1072 2.8936 0
M  V30 78 H 5.2369 -1.9184 1.1298 0
M  V30 79 H 5.6564 -0.5285 2.1168 0
M  V30 80 H 3.7014 -1.4515 -5.613 0
M  V30 81 H 1.8538 0.3473 -2.7082 0
M  V30 82 H -5.1591 -4.0628 2.4603 0
M  V30 83 H -6.8843 -4.2416 2.2414 0
M  V30 84 H -5.9139 -3.5189 0.938 0
M  V30 85 H 4.809 0.6979 -3.3162 0
M  V30 86 H 2.8418 -0.0802 -0.5795 0
M  V30 87 H 4.2601 -0.8837 -1.2943 0
M  V30 88 H 2.6836 -1.661 -1.281 0
M  V30 89 H 3.0639 3.9537 4.5551 0
M  V30 90 H 3.7103 2.4736 5.2867 0
M  V30 91 H 4.705 3.4208 4.175 0
M  V30 92 H -8.5612 -3.0403 1.4597 0
M  V30 93 H -9.5226 -1.695 2.0087 0
M  V30 94 H -7.0338 -0.1389 4.0944 0
M  V30 95 H -8.7459 -0.2895 3.7765 0
M  V30 96 H 3.3716 0.9886 -4.9862 0
M  V30 97 H 4.9594 2.8177 -2.639 0
M  V30 98 H 2.3285 4.7157 2.4349 0
M  V30 99 H -9.5755 -2.5999 4.3316 0
M  V30 100 H -8.5682 -3.9651 3.8408 0
M  V30 101 H -10.1965 -3.7796 3.1649 0
M  V30 102 H -8.4144 0.5373 1.4296 0
M  V30 103 H -6.682 0.7122 1.7368 0
M  V30 104 H -7.8427 1.7035 2.6359 0
M  V30 105 H 3.3919 4.1874 -1.2261 0
M  V30 106 H 5.5255 1.2082 -0.9272 0
M  V30 107 H 4.008 1.5313 -0.0847 0
M  V30 108 H 5.1757 2.8193 -0.3105 0
M  V30 109 H 0.7131 4.6362 0.6355 0
M  V30 110 H 1.3037 2.3291 -2.4226 0
M  V30 111 H 1.9413 1.8838 -0.0087 0
M  V30 112 H 0.646 4.4346 -3.2616 0
M  V30 113 H 0.9177 5.2447 -1.7124 0
M  V30 114 H -0.4079 4.0792 -1.9039 0
M  V30 115 H 4.1145 5.0575 -5.5394 0
M  V30 116 H 2.9957 6.3044 -4.8871 0
M  V30 117 H 4.7504 6.5778 -4.8786 0
M  V30 118 H -0.3563 1.0409 -1.7538 0
M  V30 119 H -1.344 0.705 -0.3279 0
M  V30 120 H 0.3709 0.2554 -0.3132 0
M  V30 END ATOM
M  V30 BEGIN BOND
M  V30 1 2 1 2
M  V30 2 1 2 3
M  V30 3 1 2 4
M  V30 4 1 3 5
M  V30 5 2 4 6
M  V30 6 1 4 7
M  V30 7 2 5 8
M  V30 8 1 5 9
M  V30 9 1 6 10
M  V30 10 1 8 11
M  V30 11 1 8 12
M  V30 12 2 9 13
M  V30 13 1 9 14
M  V30 14 2 10 15
M  V30 15 2 12 16
M  V30 16 1 12 17
M  V30 17 1 13 18
M  V30 18 2 14 19
M  V30 19 1 15 20
M  V30 20 1 16 21
M  V30 21 1 16 22
M  V30 22 2 17 23
M  V30 23 1 19 24
M  V30 24 1 20 25
M  V30 25 1 20 26
M  V30 26 2 22 27
M  V30 27 1 22 28
M  V30 28 1 23 29
M  V30 29 2 24 30
M  V30 30 1 25 31
M  V30 31 1 25 32
M  V30 32 1 27 33
M  V30 33 2 29 34
M  V30 34 1 29 35
M  V30 35 1 30 36
M  V30 36 1 30 37
M  V30 37 1 32 38
M  V30 38 1 32 39
M  V30 39 1 35 40
M  V30 40 1 35 41
M  V30 41 1 36 42
M  V30 42 1 36 43
M  V30 43 1 38 44
M  V30 44 1 38 45
M  V30 45 1 40 46
M  V30 46 1 42 47
M  V30 47 1 43 48
M  V30 48 1 45 49
M  V30 49 1 45 50
M  V30 50 2 46 51
M  V30 51 1 49 52
M  V30 52 1 49 53
M  V30 53 1 51 54
M  V30 54 1 52 55
M  V30 55 1 53 56
M  V30 56 1 54 57
M  V30 57 2 55 58
M  V30 58 1 55 59
M  V30 59 1 57 60
M  V30 60 1 13 17
M  V30 61 1 23 27
M  V30 62 1 33 35
M  V30 63 1 53 54
M  V30 64 1 3 61
M  V30 65 1 6 62
M  V30 66 1 7 63
M  V30 67 1 7 64
M  V30 68 1 7 65
M  V30 69 1 10 66
M  V30 70 1 11 67
M  V30 71 1 14 68
M  V30 72 1 15 69
M  V30 73 1 18 70
M  V30 74 1 20 71
M  V30 75 1 21 72
M  V30 76 1 25 73
M  V30 77 1 26 74
M  V30 78 1 26 75
M  V30 79 1 26 76
M  V30 80 1 28 77
M  V30 81 1 28 78
M  V30 82 1 28 79
M  V30 83 1 31 80
M  V30 84 1 32 81
M  V30 85 1 37 82
M  V30 86 1 37 83
M  V30 87 1 37 84
M  V30 88 1 38 85
M  V30 89 1 39 86
M  V30 90 1 39 87
M  V30 91 1 39 88
M  V30 92 1 41 89
M  V30 93 1 41 90
M  V30 94 1 41 91
M  V30 95 1 42 92
M  V30 96 1 42 93
M  V30 97 1 43 94
M  V30 98 1 43 95
M  V30 99 1 44 96
M  V30 100 1 45 97
M  V30 101 1 46 98
M  V30 102 1 47 99
M  V30 103 1 47 100
M  V30 104 1 47 101
M  V30 105 1 48 102
M  V30 106 1 48 103
M  V30 107 1 48 104
M  V30 108 1 49 105
M  V30 109 1 50 106
M  V30 110 1 50 107
M  V30 111 1 50 108
M  V30 112 1 51 109
M  V30 113 1 53 110
M  V30 114 1 54 111
M  V30 115 1 56 112
M  V30 116 1 56 113
M  V30 117 1 56 114
M  V30 118 1 59 115
M  V30 119 1 59 116
M  V30 120 1 59 117
M  V30 121 1 60 118
M  V30 122 1 60 119
M  V30 123 1 60 120
M  V30 END BOND
M  V30 END CTAB
M  END
>  <level_0>
1587

>  <index>
1587

>  <NO.>
1588

>  <Name>
rifametane

>  <SMILES>
CCN(CC)C(C)=NN=Cc1c2c(O)c3c(O)c(C)c4c(c3c1O)C(=O)C(C)(OC=CC(OC)C(C)C(OC(C)=O)C(C)C(O)C(C)C(O)C(C)C=CC=C(C)C(=O)N2)O4

>  <logBB>


>  <Class>
-1

>  <MW>
836.42

>  <nHBAcc>
14

>  <nHBDon>
6

>  <SLogP>
5.85

>  <TopoPSA>
229.27

>  <MMFF94 Energy>
170.63

$$$$
CCN(CC)C(C)CN1c2ccccc2Sc2ccccc21
Actelion Java MolfileCreator 2.0

  0  0  0  0  0  0              0 V3000
M  V30 BEGIN CTAB
M  V30 COUNTS 46 48 0 0 0
M  V30 BEGIN ATOM
M  V30 1 S -0.2402 1.4422 -2.7255 0
M  V30 2 C -1.7419 0.8148 -2.0015 0
M  V30 3 C 0.5675 2.1766 -1.3186 0
M  V30 4 C -1.9406 0.7098 -0.6106 0
M  V30 5 C -2.7389 0.3945 -2.9004 0
M  V30 6 C 0.1521 1.9551 0.0087 0
M  V30 7 C 1.6669 3.0097 -1.5959 0
M  V30 8 N -0.9377 1.0998 0.3165 0
M  V30 9 C -3.1916 0.2234 -0.1752 0
M  V30 10 C -3.9529 -0.1061 -2.4395 0
M  V30 11 C 0.8324 2.6673 1.0189 0
M  V30 12 C 2.3447 3.6647 -0.5719 0
M  V30 13 C -0.794 0.2514 1.5318 0
M  V30 14 C -4.1827 -0.1837 -1.0741 0
M  V30 15 C 1.9181 3.5031 0.7374 0
M  V30 16 C -0.3343 -1.2166 1.2205 0 CFG=1
M  V30 17 N 0.9904 -1.2991 0.5448 0
M  V30 18 C -0.422 -2.0485 2.5133 0
M  V30 19 C 2.1276 -1.0198 1.4328 0
M  V30 20 C 1.1718 -2.5492 -0.2113 0
M  V30 21 C 3.3543 -0.5277 0.6688 0
M  V30 22 C 0.3497 -2.5865 -1.4965 0
M  V30 23 H -2.572 0.4632 -3.9733 0
M  V30 24 H 1.9939 3.1598 -2.6224 0
M  V30 25 H -3.4344 0.1759 0.8812 0
M  V30 26 H -4.7168 -0.4209 -3.1449 0
M  V30 27 H 0.5048 2.6133 2.0526 0
M  V30 28 H 3.1874 4.3107 -0.8006 0
M  V30 29 H -0.108 0.6806 2.2671 0
M  V30 30 H -1.7453 0.225 2.0764 0
M  V30 31 H -5.1347 -0.5529 -0.7016 0
M  V30 32 H 2.4188 4.0321 1.5438 0
M  V30 33 H -1.0909 -1.631 0.5473 0
M  V30 34 H -0.1477 -3.0937 2.3428 0
M  V30 35 H 0.2224 -1.6489 3.3031 0
M  V30 36 H -1.4489 -2.0446 2.8963 0
M  V30 37 H 1.8753 -0.2252 2.1429 0
M  V30 38 H 2.3906 -1.9016 2.0299 0
M  V30 39 H 2.2159 -2.6615 -0.5218 0
M  V30 40 H 0.9462 -3.428 0.403 0
M  V30 41 H 4.126 -0.2046 1.3756 0
M  V30 42 H 3.1071 0.3274 0.0321 0
M  V30 43 H 3.794 -1.3075 0.0412 0
M  V30 44 H 0.6014 -3.4848 -2.0703 0
M  V30 45 H 0.5697 -1.7194 -2.1269 0
M  V30 46 H -0.7265 -2.6144 -1.3067 0
M  V30 END ATOM
M  V30 BEGIN BOND
M  V30 1 1 1 2
M  V30 2 1 1 3
M  V30 3 2 2 4
M  V30 4 1 2 5
M  V30 5 2 3 6
M  V30 6 1 3 7
M  V30 7 1 4 8
M  V30 8 1 4 9
M  V30 9 2 5 10
M  V30 10 1 6 11
M  V30 11 2 7 12
M  V30 12 1 8 13
M  V30 13 2 9 14
M  V30 14 2 11 15
M  V30 15 1 13 16
M  V30 16 1 16 17
M  V30 17 1 16 18
M  V30 18 1 17 19
M  V30 19 1 17 20
M  V30 20 1 19 21
M  V30 21 1 20 22
M  V30 22 1 6 8
M  V30 23 1 10 14
M  V30 24 1 12 15
M  V30 25 1 5 23
M  V30 26 1 7 24
M  V30 27 1 9 25
M  V30 28 1 10 26
M  V30 29 1 11 27
M  V30 30 1 12 28
M  V30 31 1 13 29
M  V30 32 1 13 30
M  V30 33 1 14 31
M  V30 34 1 15 32
M  V30 35 1 16 33
M  V30 36 1 18 34
M  V30 37 1 18 35
M  V30 38 1 18 36
M  V30 39 1 19 37
M  V30 40 1 19 38
M  V30 41 1 20 39
M  V30 42 1 20 40
M  V30 43 1 21 41
M  V30 44 1 21 42
M  V30 45 1 21 43
M  V30 46 1 22 44
M  V30 47 1 22 45
M  V30 48 1 22 46
M  V30 END BOND
M  V30 BEGIN COLLECTION
M  V30 MDLV30/STERAC1 ATOMS=(1 16)
M  V30 END COLLECTION
M  V30 END CTAB
M  END
>  <level_0>
1588

>  <index>
1588

>  <NO.>
1589

>  <Name>
isothamine(profenamine)

>  <SMILES>
CCN(CC)C(C)CN1c2ccccc2Sc2ccccc21

>  <logBB>


>  <Class>
1

>  <MW>
312.17

>  <nHBAcc>
3

>  <nHBDon>
0

>  <SLogP>
5.02

>  <TopoPSA>
6.48

>  <MMFF94 Energy>
99.046

$$$$
CCN(CC)C/C=C1/c2ccccc2Nc2cc(Cl)ccc21
Actelion Java MolfileCreator 2.0

  0  0  0  0  0  0              0 V3000
M  V30 BEGIN CTAB
M  V30 COUNTS 43 45 0 0 0
M  V30 BEGIN ATOM
M  V30 1 Cl -1.9993 -0.7993 5.5256 0
M  V30 2 C -1.6817 -0.6571 3.8398 0
M  V30 3 C -2.4708 -1.3547 2.9274 0
M  V30 4 C -0.6613 0.1813 3.399 0
M  V30 5 C -2.2192 -1.236 1.5562 0
M  V30 6 C -0.4015 0.299 2.0317 0
M  V30 7 N -3.1081 -1.8055 0.6228 0
M  V30 8 C -1.1364 -0.4445 1.1014 0
M  V30 9 C -3.1182 -1.4651 -0.7444 0
M  V30 10 C -0.9032 -0.4101 -0.3749 0
M  V30 11 C -2.0655 -0.6884 -1.2856 0
M  V30 12 C -4.2082 -1.8165 -1.5487 0
M  V30 13 C 0.3308 -0.3538 -0.9317 0
M  V30 14 C -2.1622 -0.2355 -2.6095 0
M  V30 15 C -4.2728 -1.3867 -2.8747 0
M  V30 16 C 1.697 -0.3746 -0.2916 0
M  V30 17 C -3.2582 -0.589 -3.4001 0
M  V30 18 N 2.3426 0.9515 -0.1942 0
M  V30 19 C 2.6196 1.51 -1.5344 0
M  V30 20 C 3.5938 0.8522 0.5893 0
M  V30 21 C 2.9214 3.007 -1.5009 0
M  V30 22 C 3.3598 0.6582 2.0853 0
M  V30 23 H -3.2977 -1.9618 3.282 0
M  V30 24 H -0.0702 0.7543 4.1084 0
M  V30 25 H 0.3693 0.9891 1.7009 0
M  V30 26 H -3.816 -2.4406 0.9587 0
M  V30 27 H -5.0241 -2.407 -1.1424 0
M  V30 28 H 0.4097 -0.4291 -2.014 0
M  V30 29 H -1.3949 0.4032 -3.0373 0
M  V30 30 H -5.1258 -1.6571 -3.4918 0
M  V30 31 H 1.6145 -0.8481 0.6904 0
M  V30 32 H 2.3314 -1.056 -0.8759 0
M  V30 33 H -3.3211 -0.2367 -4.4266 0
M  V30 34 H 3.4388 0.9706 -2.0263 0
M  V30 35 H 1.7424 1.406 -2.1819 0
M  V30 36 H 4.2342 0.048 0.2051 0
M  V30 37 H 4.1727 1.777 0.5003 0
M  V30 38 H 2.9658 3.3982 -2.523 0
M  V30 39 H 3.8817 3.2296 -1.0281 0
M  V30 40 H 2.1364 3.5546 -0.9687 0
M  V30 41 H 4.3154 0.7091 2.6182 0
M  V30 42 H 2.9125 -0.3121 2.3162 0
M  V30 43 H 2.7146 1.446 2.4878 0
M  V30 END ATOM
M  V30 BEGIN BOND
M  V30 1 1 1 2
M  V30 2 2 2 3
M  V30 3 1 2 4
M  V30 4 1 3 5
M  V30 5 2 4 6
M  V30 6 1 5 7
M  V30 7 2 5 8
M  V30 8 1 7 9
M  V30 9 1 8 10
M  V30 10 2 9 11
M  V30 11 1 9 12
M  V30 12 2 10 13
M  V30 13 1 11 14
M  V30 14 2 12 15
M  V30 15 1 13 16
M  V30 16 2 14 17
M  V30 17 1 16 18
M  V30 18 1 18 19
M  V30 19 1 18 20
M  V30 20 1 19 21
M  V30 21 1 20 22
M  V30 22 1 6 8
M  V30 23 1 10 11
M  V30 24 1 15 17
M  V30 25 1 3 23
M  V30 26 1 4 24
M  V30 27 1 6 25
M  V30 28 1 7 26
M  V30 29 1 12 27
M  V30 30 1 13 28
M  V30 31 1 14 29
M  V30 32 1 15 30
M  V30 33 1 16 31
M  V30 34 1 16 32
M  V30 35 1 17 33
M  V30 36 1 19 34
M  V30 37 1 19 35
M  V30 38 1 20 36
M  V30 39 1 20 37
M  V30 40 1 21 38
M  V30 41 1 21 39
M  V30 42 1 21 40
M  V30 43 1 22 41
M  V30 44 1 22 42
M  V30 45 1 22 43
M  V30 END BOND
M  V30 END CTAB
M  END
>  <level_0>
1589

>  <index>
1589

>  <NO.>
1590

>  <Name>
elanzepine

>  <SMILES>
CCN(CC)C/C=C1/c2ccccc2Nc2cc(Cl)ccc21

>  <logBB>


>  <Class>
1

>  <MW>
312.14

>  <nHBAcc>
2

>  <nHBDon>
1

>  <SLogP>
5.17

>  <TopoPSA>
15.27

>  <MMFF94 Energy>
53.653

$$$$
CCN(CC)CCC(=O)N1c2ccccc2Sc2ccc(C(F)(F)F)cc21
Actelion Java MolfileCreator 2.0

  0  0  0  0  0  0              0 V3000
M  V30 BEGIN CTAB
M  V30 COUNTS 48 50 0 0 0
M  V30 BEGIN ATOM
M  V30 1 S -4.1473 0.0 -1.2184 0
M  V30 2 C -2.5661 0.8229 -1.1431 0
M  V30 3 C -3.5907 -1.5973 -1.7974 0
M  V30 4 C -1.3732 0.0983 -0.9849 0
M  V30 5 C -2.5204 2.2123 -1.3027 0
M  V30 6 C -2.2862 -2.0576 -1.5371 0
M  V30 7 C -4.4735 -2.3861 -2.5451 0
M  V30 8 N -1.4028 -1.2994 -0.7071 0
M  V30 9 C -0.145 0.768 -1.0954 0
M  V30 10 C -1.2929 2.8774 -1.3506 0
M  V30 11 C -1.8774 -3.2896 -2.0664 0
M  V30 12 C -4.0571 -3.6156 -3.0572 0
M  V30 13 C -0.8264 -1.9 0.4214 0
M  V30 14 C -0.0914 2.1604 -1.2662 0
M  V30 15 C -2.759 -4.0634 -2.8237 0
M  V30 16 O -0.8145 -3.1205 0.6197 0
M  V30 17 C -0.1992 -1.0063 1.4787 0
M  V30 18 C 1.2332 2.8835 -1.3228 0
M  V30 19 C 1.3275 -1.1164 1.412 0
M  V30 20 F 2.2931 2.0619 -1.5601 0
M  V30 21 F 1.2687 3.824 -2.309 0
M  V30 22 F 1.5152 3.546 -0.1682 0
M  V30 23 N 1.9967 0.162 1.7348 0
M  V30 24 C 3.4272 0.0747 1.3796 0
M  V30 25 C 1.7965 0.5465 3.144 0
M  V30 26 C 4.1624 1.4083 1.4592 0
M  V30 27 C 1.2867 1.9804 3.2239 0
M  V30 28 H -3.4396 2.7851 -1.4105 0
M  V30 29 H -5.4864 -2.0439 -2.7444 0
M  V30 30 H 0.787 0.2098 -1.0366 0
M  V30 31 H -1.2769 3.9599 -1.4756 0
M  V30 32 H -0.8741 -3.6649 -1.8786 0
M  V30 33 H -4.7454 -4.2228 -3.64 0
M  V30 34 H -2.4337 -5.0225 -3.2193 0
M  V30 35 H -0.5561 -1.3558 2.456 0
M  V30 36 H -0.5526 0.0239 1.4006 0
M  V30 37 H 1.6732 -1.9141 2.0831 0
M  V30 38 H 1.6172 -1.4264 0.3998 0
M  V30 39 H 3.9401 -0.6675 2.0045 0
M  V30 40 H 3.5162 -0.2675 0.3406 0
M  V30 41 H 1.0585 -0.094 3.6416 0
M  V30 42 H 2.7137 0.4396 3.7361 0
M  V30 43 H 5.1793 1.2958 1.0687 0
M  V30 44 H 4.2458 1.7695 2.4886 0
M  V30 45 H 3.6586 2.1737 0.8604 0
M  V30 46 H 1.12 2.2605 4.2693 0
M  V30 47 H 0.3353 2.0913 2.6925 0
M  V30 48 H 1.9987 2.6932 2.7976 0
M  V30 END ATOM
M  V30 BEGIN BOND
M  V30 1 1 1 2
M  V30 2 1 1 3
M  V30 3 2 2 4
M  V30 4 1 2 5
M  V30 5 2 3 6
M  V30 6 1 3 7
M  V30 7 1 4 8
M  V30 8 1 4 9
M  V30 9 2 5 10
M  V30 10 1 6 11
M  V30 11 2 7 12
M  V30 12 1 8 13
M  V30 13 2 9 14
M  V30 14 2 11 15
M  V30 15 2 13 16
M  V30 16 1 13 17
M  V30 17 1 14 18
M  V30 18 1 17 19
M  V30 19 1 18 20
M  V30 20 1 18 21
M  V30 21 1 18 22
M  V30 22 1 19 23
M  V30 23 1 23 24
M  V30 24 1 23 25
M  V30 25 1 24 26
M  V30 26 1 25 27
M  V30 27 1 6 8
M  V30 28 1 10 14
M  V30 29 1 12 15
M  V30 30 1 5 28
M  V30 31 1 7 29
M  V30 32 1 9 30
M  V30 33 1 10 31
M  V30 34 1 11 32
M  V30 35 1 12 33
M  V30 36 1 15 34
M  V30 37 1 17 35
M  V30 38 1 17 36
M  V30 39 1 19 37
M  V30 40 1 19 38
M  V30 41 1 24 39
M  V30 42 1 24 40
M  V30 43 1 25 41
M  V30 44 1 25 42
M  V30 45 1 26 43
M  V30 46 1 26 44
M  V30 47 1 26 45
M  V30 48 1 27 46
M  V30 49 1 27 47
M  V30 50 1 27 48
M  V30 END BOND
M  V30 END CTAB
M  END
>  <level_0>
1593

>  <index>
1593

>  <NO.>
1594

>  <Name>
fluacizine

>  <SMILES>
CCN(CC)CCC(=O)N1c2ccccc2Sc2ccc(C(F)(F)F)cc21

>  <logBB>


>  <Class>
1

>  <MW>
394.13

>  <nHBAcc>
3

>  <nHBDon>
0

>  <SLogP>
5.57

>  <TopoPSA>
23.55

>  <MMFF94 Energy>
94.817

$$$$
CCN(CC)CCn1cnc2c1c(=O)n(C)c(=O)n2C
Actelion Java MolfileCreator 2.0

  0  0  0  0  0  0              0 V3000
M  V30 BEGIN CTAB
M  V30 COUNTS 41 42 0 0 0
M  V30 BEGIN ATOM
M  V30 1 O 1.8798 -4.1551 -3.3701 0
M  V30 2 C 1.4614 -3.1162 -2.8504 0
M  V30 3 N 1.9194 -2.7048 -1.5819 0
M  V30 4 N 0.5204 -2.3033 -3.4817 0
M  V30 5 C 1.5028 -1.5598 -0.8962 0
M  V30 6 C 2.8968 -3.5649 -0.9439 0
M  V30 7 C 0.0903 -1.1594 -2.854 0
M  V30 8 C -0.0011 -2.6551 -4.7898 0
M  V30 9 O 1.899 -1.2416 0.2204 0
M  V30 10 C 0.5515 -0.7933 -1.6249 0
M  V30 11 N -0.8186 -0.2722 -3.3444 0
M  V30 12 N -0.0968 0.3757 -1.3405 0
M  V30 13 C -0.9109 0.6517 -2.4104 0
M  V30 14 C 0.0365 1.207 -0.158 0
M  V30 15 C -0.865 0.7245 0.9884 0
M  V30 16 N -0.822 1.6245 2.1604 0
M  V30 17 C -1.3143 0.9138 3.3558 0
M  V30 18 C -1.5589 2.8774 1.9166 0
M  V30 19 C -1.0693 1.6745 4.655 0
M  V30 20 C -0.6553 4.072 2.1918 0
M  V30 21 H 3.7599 -3.6792 -1.6079 0
M  V30 22 H 2.4504 -4.5527 -0.7895 0
M  V30 23 H 3.2385 -3.1746 0.0177 0
M  V30 24 H 0.2351 -1.853 -5.4962 0
M  V30 25 H -1.0869 -2.775 -4.7211 0
M  V30 26 H 0.4297 -3.5874 -5.1638 0
M  V30 27 H -1.5427 1.5301 -2.4554 0
M  V30 28 H -0.2105 2.23 -0.4632 0
M  V30 29 H 1.091 1.2092 0.1381 0
M  V30 30 H -1.8994 0.591 0.6437 0
M  V30 31 H -0.5118 -0.2742 1.2762 0
M  V30 32 H -2.3812 0.6765 3.2588 0
M  V30 33 H -0.7829 -0.0415 3.4513 0
M  V30 34 H -1.9076 2.9508 0.8791 0
M  V30 35 H -2.4672 2.9494 2.5274 0
M  V30 36 H -1.3506 1.0505 5.5099 0
M  V30 37 H -1.6609 2.5929 4.7114 0
M  V30 38 H -0.0113 1.9344 4.7654 0
M  V30 39 H -1.1964 5.0037 1.9971 0
M  V30 40 H 0.2275 4.0562 1.5441 0
M  V30 41 H -0.3157 4.0943 3.2317 0
M  V30 END ATOM
M  V30 BEGIN BOND
M  V30 1 2 1 2
M  V30 2 1 2 3
M  V30 3 1 2 4
M  V30 4 1 3 5
M  V30 5 1 3 6
M  V30 6 1 4 7
M  V30 7 1 4 8
M  V30 8 2 5 9
M  V30 9 1 5 10
M  V30 10 1 7 11
M  V30 11 1 10 12
M  V30 12 2 11 13
M  V30 13 1 12 14
M  V30 14 1 14 15
M  V30 15 1 15 16
M  V30 16 1 16 17
M  V30 17 1 16 18
M  V30 18 1 17 19
M  V30 19 1 18 20
M  V30 20 2 7 10
M  V30 21 1 12 13
M  V30 22 1 6 21
M  V30 23 1 6 22
M  V30 24 1 6 23
M  V30 25 1 8 24
M  V30 26 1 8 25
M  V30 27 1 8 26
M  V30 28 1 13 27
M  V30 29 1 14 28
M  V30 30 1 14 29
M  V30 31 1 15 30
M  V30 32 1 15 31
M  V30 33 1 17 32
M  V30 34 1 17 33
M  V30 35 1 18 34
M  V30 36 1 18 35
M  V30 37 1 19 36
M  V30 38 1 19 37
M  V30 39 1 19 38
M  V30 40 1 20 39
M  V30 41 1 20 40
M  V30 42 1 20 41
M  V30 END BOND
M  V30 END CTAB
M  END
>  <level_0>
1603

>  <index>
1603

>  <NO.>
1604

>  <Name>
etamiphyllin

>  <SMILES>
CCN(CC)CCn1cnc2c1c(=O)n(C)c(=O)n2C

>  <logBB>


>  <Class>
1

>  <MW>
279.17

>  <nHBAcc>
4

>  <nHBDon>
0

>  <SLogP>
-0.22

>  <TopoPSA>
65.06

>  <MMFF94 Energy>
-107.94

$$$$
CCN(CC)c1nc2c(s1)c1c(O)c3c(O)c(C)c4c(c32)C(=O)[C@@](C)(O/C=C/[C@H](OC)[C@@H](C)[C@@H](OC(C)=O)[C@H](C)[C@H](O)[C@H](C)[C@@H](O)[C@@H](C)/C=C/C=C(/C)C(=O)N1)O4
Actelion Java MolfileCreator 2.0

  0  0  0  0  0  0              0 V3000
M  V30 BEGIN CTAB
M  V30 COUNTS 112 116 0 0 0
M  V30 BEGIN ATOM
M  V30 1 S -2.1554 4.7947 1.756 0
M  V30 2 C -1.0524 4.9617 0.4471 0
M  V30 3 C -2.648 3.2424 1.1851 0
M  V30 4 N -1.0759 3.9335 -0.3677 0
M  V30 5 N -0.2326 6.0384 0.2605 0
M  V30 6 C -3.5762 2.3603 1.7546 0
M  V30 7 C -1.951 2.9385 0.0195 0
M  V30 8 C 0.6751 6.0315 -0.8886 0
M  V30 9 C -0.1931 7.192 1.1498 0
M  V30 10 N -4.2141 2.7161 2.9572 0
M  V30 11 C -3.8716 1.1881 1.0431 0
M  V30 12 C -2.1948 1.6955 -0.6591 0
M  V30 13 C 1.9713 5.31 -0.5488 0
M  V30 14 C -1.2138 8.238 0.7257 0
M  V30 15 C -4.29 2.0293 4.1364 0
M  V30 16 O -4.8951 0.4118 1.5415 0
M  V30 17 C -3.2027 0.822 -0.1543 0
M  V30 18 C -1.5068 1.2925 -1.8249 0
M  V30 19 O -4.9269 2.5047 5.0777 0
M  V30 20 C -3.6114 0.7115 4.3033 0
M  V30 21 C -3.4831 -0.3799 -0.8858 0
M  V30 22 C -1.8349 0.1315 -2.5139 0
M  V30 23 C -0.3856 1.8484 -2.5753 0
M  V30 24 C -2.2824 0.5111 4.2077 0
M  V30 25 C -4.5552 -0.3952 4.6793 0
M  V30 26 O -4.4453 -1.2222 -0.3646 0
M  V30 27 C -2.8377 -0.7244 -2.0843 0
M  V30 28 O -1.1148 -0.119 -3.6568 0
M  V30 29 O 0.2615 2.8492 -2.3251 0
M  V30 30 C -0.117 0.9164 -3.7477 0 CFG=2
M  V30 31 C -1.2602 1.506 3.9632 0
M  V30 32 C -3.1715 -1.9662 -2.8586 0
M  V30 33 O 1.2073 0.4076 -3.5374 0
M  V30 34 C -0.2904 1.6983 -5.0491 0
M  V30 35 C 0.0368 1.268 3.7022 0
M  V30 36 C 1.6613 -0.4775 -4.4691 0
M  V30 37 C 0.7589 -0.0724 3.6692 0 CFG=1
M  V30 38 C 2.2048 -1.6584 -4.1546 0
M  V30 39 C 0.9459 -0.5988 2.2117 0 CFG=2
M  V30 40 C 2.0895 0.0937 4.415 0
M  V30 41 C 2.3012 -2.238 -2.7631 0 CFG=2
M  V30 42 O -0.3323 -0.765 1.5946 0
M  V30 43 C 1.7375 -1.9349 2.1029 0 CFG=2
M  V30 44 O 3.6748 -2.4806 -2.4449 0
M  V30 45 C 1.4901 -3.558 -2.6313 0 CFG=2
M  V30 46 C 1.98 -2.3931 0.6231 0 CFG=1
M  V30 47 C 1.172 -3.0513 2.9912 0
M  V30 48 C 4.4178 -1.2867 -2.2071 0
M  V30 49 C 1.5796 -4.2697 -1.2454 0 CFG=2
M  V30 50 C 1.8885 -4.5897 -3.7126 0
M  V30 51 O 3.3525 -2.8231 0.6021 0
M  V30 52 C 1.0663 -3.5143 0.026 0 CFG=2
M  V30 53 O 2.9221 -4.7626 -1.0432 0
M  V30 54 C -0.3753 -3.0574 -0.2045 0
M  V30 55 C 3.0575 -5.9416 -0.3751 0
M  V30 56 O 2.1417 -6.6423 0.0315 0
M  V30 57 C 4.5104 -6.2666 -0.2112 0
M  V30 58 H 0.9103 7.0618 -1.1838 0
M  V30 59 H 0.2048 5.576 -1.7683 0
M  V30 60 H 0.8054 7.6463 1.1246 0
M  V30 61 H -0.3523 6.9085 2.1964 0
M  V30 62 H -4.616 3.6436 3.0104 0
M  V30 63 H 1.7895 4.2658 -0.2751 0
M  V30 64 H 2.4799 5.7912 0.2932 0
M  V30 65 H 2.6484 5.3232 -1.4084 0
M  V30 66 H -2.2344 7.8452 0.7685 0
M  V30 67 H -1.0295 8.575 -0.2997 0
M  V30 68 H -1.1581 9.1101 1.3849 0
M  V30 69 H -5.0017 -0.3528 0.9403 0
M  V30 70 H -1.9315 -0.5081 4.352 0
M  V30 71 H -4.0658 -1.3749 4.6641 0
M  V30 72 H -5.4019 -0.4422 3.9876 0
M  V30 73 H -4.9478 -0.2339 5.689 0
M  V30 74 H -4.3719 -2.0983 -0.7829 0
M  V30 75 H -1.578 2.5471 3.9872 0
M  V30 76 H -4.2547 -2.0496 -2.9973 0
M  V30 77 H -2.7282 -1.965 -3.8592 0
M  V30 78 H -2.8051 -2.8504 -2.3284 0
M  V30 79 H 0.5211 2.4195 -5.1924 0
M  V30 80 H -0.3042 1.0277 -5.9149 0
M  V30 81 H -1.2442 2.2384 -5.0623 0
M  V30 82 H 0.6638 2.1388 3.5019 0
M  V30 83 H 1.6297 -0.1129 -5.4871 0
M  V30 84 H 0.1618 -0.7986 4.2297 0
M  V30 85 H 2.6269 -2.2527 -4.9606 0
M  V30 86 H 1.4789 0.163 1.6277 0
M  V30 87 H 2.574 -0.8699 4.5962 0
M  V30 88 H 1.9361 0.56 5.3955 0
M  V30 89 H 2.7871 0.722 3.8496 0
M  V30 90 H 1.8892 -1.5231 -2.047 0
M  V30 91 H -0.8352 0.0557 1.743 0
M  V30 92 H 2.733 -1.7164 2.5146 0
M  V30 93 H 0.4344 -3.3126 -2.8118 0
M  V30 94 H 1.9383 -1.5028 -0.0077 0
M  V30 95 H 0.125 -3.2688 2.7634 0
M  V30 96 H 1.7552 -3.9714 2.878 0
M  V30 97 H 1.2263 -2.7853 4.0511 0
M  V30 98 H 3.943 -0.6786 -1.4313 0
M  V30 99 H 5.4142 -1.5737 -1.86 0
M  V30 100 H 4.5314 -0.7065 -3.127 0
M  V30 101 H 0.9192 -5.1446 -1.348 0
M  V30 102 H 2.9663 -4.7822 -3.713 0
M  V30 103 H 1.6001 -4.2517 -4.7127 0
M  V30 104 H 1.3752 -5.5444 -3.5516 0
M  V30 105 H 3.568 -3.0798 -0.3181 0
M  V30 106 H 1.0284 -4.3068 0.7829 0
M  V30 107 H -0.9058 -2.9139 0.7388 0
M  V30 108 H -0.9467 -3.8119 -0.7564 0
M  V30 109 H -0.4071 -2.1253 -0.7752 0
M  V30 110 H 4.9809 -6.3653 -1.1926 0
M  V30 111 H 5.0011 -5.4851 0.3744 0
M  V30 112 H 4.6114 -7.2166 0.3212 0
M  V30 END ATOM
M  V30 BEGIN BOND
M  V30 1 1 1 2
M  V30 2 1 1 3
M  V30 3 2 2 4
M  V30 4 1 2 5
M  V30 5 1 3 6
M  V30 6 2 3 7
M  V30 7 1 5 8
M  V30 8 1 5 9
M  V30 9 1 6 10
M  V30 10 2 6 11
M  V30 11 1 7 12
M  V30 12 1 8 13
M  V30 13 1 9 14
M  V30 14 1 10 15
M  V30 15 1 11 16
M  V30 16 1 11 17
M  V30 17 2 12 18
M  V30 18 2 15 19
M  V30 19 1 15 20
M  V30 20 2 17 21
M  V30 21 1 18 22
M  V30 22 1 18 23
M  V30 23 2 20 24
M  V30 24 1 20 25
M  V30 25 1 21 26
M  V30 26 1 21 27
M  V30 27 1 22 28
M  V30 28 2 23 29
M  V30 29 1 23 30
M  V30 30 1 24 31
M  V30 31 1 27 32
M  V30 32 1 30 33
M  V30 33 1 30 34
M  V30 34 2 31 35
M  V30 35 1 33 36
M  V30 36 1 35 37
M  V30 37 2 36 38
M  V30 38 1 37 39
M  V30 39 1 37 40
M  V30 40 1 38 41
M  V30 41 1 39 42
M  V30 42 1 39 43
M  V30 43 1 41 44
M  V30 44 1 41 45
M  V30 45 1 43 46
M  V30 46 1 43 47
M  V30 47 1 44 48
M  V30 48 1 45 49
M  V30 49 1 45 50
M  V30 50 1 46 51
M  V30 51 1 46 52
M  V30 52 1 49 53
M  V30 53 1 52 54
M  V30 54 1 53 55
M  V30 55 2 55 56
M  V30 56 1 55 57
M  V30 57 1 4 7
M  V30 58 1 12 17
M  V30 59 2 22 27
M  V30 60 1 28 30
M  V30 61 1 49 52
M  V30 62 1 8 58
M  V30 63 1 8 59
M  V30 64 1 9 60
M  V30 65 1 9 61
M  V30 66 1 10 62
M  V30 67 1 13 63
M  V30 68 1 13 64
M  V30 69 1 13 65
M  V30 70 1 14 66
M  V30 71 1 14 67
M  V30 72 1 14 68
M  V30 73 1 16 69
M  V30 74 1 24 70
M  V30 75 1 25 71
M  V30 76 1 25 72
M  V30 77 1 25 73
M  V30 78 1 26 74
M  V30 79 1 31 75
M  V30 80 1 32 76
M  V30 81 1 32 77
M  V30 82 1 32 78
M  V30 83 1 34 79
M  V30 84 1 34 80
M  V30 85 1 34 81
M  V30 86 1 35 82
M  V30 87 1 36 83
M  V30 88 1 37 84
M  V30 89 1 38 85
M  V30 90 1 39 86
M  V30 91 1 40 87
M  V30 92 1 40 88
M  V30 93 1 40 89
M  V30 94 1 41 90
M  V30 95 1 42 91
M  V30 96 1 43 92
M  V30 97 1 45 93
M  V30 98 1 46 94
M  V30 99 1 47 95
M  V30 100 1 47 96
M  V30 101 1 47 97
M  V30 102 1 48 98
M  V30 103 1 48 99
M  V30 104 1 48 100
M  V30 105 1 49 101
M  V30 106 1 50 102
M  V30 107 1 50 103
M  V30 108 1 50 104
M  V30 109 1 51 105
M  V30 110 1 52 106
M  V30 111 1 54 107
M  V30 112 1 54 108
M  V30 113 1 54 109
M  V30 114 1 57 110
M  V30 115 1 57 111
M  V30 116 1 57 112
M  V30 END BOND
M  V30 BEGIN COLLECTION
M  V30 MDLV30/STEABS ATOMS=(9 30 37 39 41 43 45 46 49 52)
M  V30 END COLLECTION
M  V30 END CTAB
M  END
>  <level_0>
1606

>  <index>
1606

>  <NO.>
1607

>  <Name>
rifamexil

>  <SMILES>
CCN(CC)c1nc2c(s1)c1c(O)c3c(O)c(C)c4c(c32)C(=O)[C@@](C)(O/C=C/[C@H](OC)[C@@H](C)[C@@H](OC(C)=O)[C@H](C)[C@H](O)[C@H](C)[C@@H](O)[C@@H](C)/C=C/C=C(/C)C(=O)N1)O4

>  <logBB>


>  <Class>
-1

>  <MW>
809.36

>  <nHBAcc>
14

>  <nHBDon>
5

>  <SLogP>
6.5

>  <TopoPSA>
197.21

>  <MMFF94 Energy>
121.45

$$$$
CCN[C@@H]1C[C@H](N)[C@@H](O[C@H]2OC(CN)=CC[C@H]2N)[C@H](O)[C@H]1O[C@H]1OC[C@](C)(O)[C@H](NC)[C@H]1O
Actelion Java MolfileCreator 2.0

  0  0  0  0  0  0              0 V3000
M  V30 BEGIN CTAB
M  V30 COUNTS 74 76 0 0 0
M  V30 BEGIN ATOM
M  V30 1 O 4.8235 1.3424 -0.2368 0
M  V30 2 C 5.6615 2.2657 0.3643 0
M  V30 3 C 4.0492 0.5075 0.6412 0 CFG=2
M  V30 4 C 5.9352 2.268 1.6797 0
M  V30 5 C 6.2577 3.273 -0.5891 0
M  V30 6 O 2.8763 1.1908 1.1149 0
M  V30 7 C 4.872 0.0144 1.8611 0 CFG=1
M  V30 8 C 5.409 1.2322 2.6235 0
M  V30 9 N 5.2237 3.9727 -1.348 0
M  V30 10 C 1.8325 1.263 0.1268 0 CFG=1
M  V30 11 N 4.1052 -0.8588 2.7793 0
M  V30 12 C 0.8232 0.1265 0.3494 0 CFG=2
M  V30 13 C 1.1292 2.6229 0.3117 0 CFG=1
M  V30 14 O 1.463 -1.1431 0.1182 0
M  V30 15 C -0.4134 0.2288 -0.5716 0 CFG=1
M  V30 16 N 2.0727 3.7381 0.1154 0
M  V30 17 C -0.0462 2.7615 -0.6516 0
M  V30 18 O -1.2993 -0.8231 -0.1154 0
M  V30 19 C -1.0768 1.6352 -0.4553 0 CFG=1
M  V30 20 C -2.2014 -1.3012 -1.1185 0 CFG=1
M  V30 21 N -2.1512 1.8004 -1.4537 0
M  V30 22 O -1.6237 -2.4332 -1.7907 0
M  V30 23 C -3.5748 -1.6721 -0.5086 0 CFG=2
M  V30 24 C -3.2524 2.626 -0.9567 0
M  V30 25 C -1.4235 -3.564 -0.9327 0
M  V30 26 O -4.1601 -0.5931 0.235 0
M  V30 27 C -3.4481 -2.9109 0.4068 0 CFG=2
M  V30 28 C -4.341 2.7135 -2.0154 0
M  V30 29 C -2.7617 -4.076 -0.3659 0 CFG=1
M  V30 30 N -4.7357 -3.1806 1.1136 0
M  V30 31 O -3.5696 -4.5053 -1.4754 0
M  V30 32 C -2.5205 -5.2947 0.5251 0
M  V30 33 C -5.8036 -3.7069 0.2699 0
M  V30 34 H 3.7598 -0.3718 0.0565 0
M  V30 35 H 6.5823 3.0314 2.1041 0
M  V30 36 H 6.8688 4.0124 -0.0598 0
M  V30 37 H 6.9203 2.7525 -1.2895 0
M  V30 38 H 5.73 -0.5587 1.4858 0
M  V30 39 H 6.2115 0.9143 3.3001 0
M  V30 40 H 4.6297 1.6937 3.2431 0
M  V30 41 H 4.6428 3.2619 -1.7904 0
M  V30 42 H 4.624 4.4717 -0.6922 0
M  V30 43 H 2.2635 1.1966 -0.8817 0
M  V30 44 H 3.7075 -1.625 2.2324 0
M  V30 45 H 3.2864 -0.3248 3.0844 0
M  V30 46 H 0.5123 0.1068 1.4021 0
M  V30 47 H 0.7648 2.7027 1.3441 0
M  V30 48 H 0.7336 -1.7906 0.1213 0
M  V30 49 H -0.103 0.0152 -1.6038 0
M  V30 50 H 2.8764 3.5505 0.7248 0
M  V30 51 H 2.4481 3.7045 -0.8317 0
M  V30 52 H -0.5274 3.7366 -0.4997 0
M  V30 53 H 0.3243 2.7512 -1.6865 0
M  V30 54 H -1.5049 1.702 0.5544 0
M  V30 55 H -2.3719 -0.5462 -1.8873 0
M  V30 56 H -1.7901 2.198 -2.3204 0
M  V30 57 H -4.2568 -1.8965 -1.3371 0
M  V30 58 H -2.9039 3.636 -0.7157 0
M  V30 59 H -3.6803 2.1875 -0.0485 0
M  V30 60 H -0.7173 -3.3126 -0.1352 0
M  V30 61 H -0.9584 -4.3375 -1.5541 0
M  V30 62 H -4.7849 -1.0349 0.8471 0
M  V30 63 H -2.7724 -2.6245 1.2261 0
M  V30 64 H -3.9658 3.1772 -2.9341 0
M  V30 65 H -4.7301 1.7206 -2.2655 0
M  V30 66 H -5.1755 3.3199 -1.6487 0
M  V30 67 H -4.5627 -3.8612 1.8554 0
M  V30 68 H -3.3473 -3.9385 -2.2387 0
M  V30 69 H -1.9215 -5.0386 1.4051 0
M  V30 70 H -1.998 -6.0823 -0.03 0
M  V30 71 H -3.464 -5.7375 0.8615 0
M  V30 72 H -6.726 -3.7468 0.859 0
M  V30 73 H -6.0078 -3.0687 -0.5936 0
M  V30 74 H -5.5983 -4.7266 -0.0658 0
M  V30 END ATOM
M  V30 BEGIN BOND
M  V30 1 1 1 2
M  V30 2 1 1 3
M  V30 3 2 2 4
M  V30 4 1 2 5
M  V30 5 1 3 6
M  V30 6 1 3 7
M  V30 7 1 4 8
M  V30 8 1 5 9
M  V30 9 1 6 10
M  V30 10 1 7 11
M  V30 11 1 10 12
M  V30 12 1 10 13
M  V30 13 1 12 14
M  V30 14 1 12 15
M  V30 15 1 13 16
M  V30 16 1 13 17
M  V30 17 1 15 18
M  V30 18 1 15 19
M  V30 19 1 18 20
M  V30 20 1 19 21
M  V30 21 1 20 22
M  V30 22 1 20 23
M  V30 23 1 21 24
M  V30 24 1 22 25
M  V30 25 1 23 26
M  V30 26 1 23 27
M  V30 27 1 24 28
M  V30 28 1 25 29
M  V30 29 1 27 30
M  V30 30 1 29 31
M  V30 31 1 29 32
M  V30 32 1 30 33
M  V30 33 1 7 8
M  V30 34 1 17 19
M  V30 35 1 27 29
M  V30 36 1 3 34
M  V30 37 1 4 35
M  V30 38 1 5 36
M  V30 39 1 5 37
M  V30 40 1 7 38
M  V30 41 1 8 39
M  V30 42 1 8 40
M  V30 43 1 9 41
M  V30 44 1 9 42
M  V30 45 1 10 43
M  V30 46 1 11 44
M  V30 47 1 11 45
M  V30 48 1 12 46
M  V30 49 1 13 47
M  V30 50 1 14 48
M  V30 51 1 15 49
M  V30 52 1 16 50
M  V30 53 1 16 51
M  V30 54 1 17 52
M  V30 55 1 17 53
M  V30 56 1 19 54
M  V30 57 1 20 55
M  V30 58 1 21 56
M  V30 59 1 23 57
M  V30 60 1 24 58
M  V30 61 1 24 59
M  V30 62 1 25 60
M  V30 63 1 25 61
M  V30 64 1 26 62
M  V30 65 1 27 63
M  V30 66 1 28 64
M  V30 67 1 28 65
M  V30 68 1 28 66
M  V30 69 1 30 67
M  V30 70 1 31 68
M  V30 71 1 32 69
M  V30 72 1 32 70
M  V30 73 1 32 71
M  V30 74 1 33 72
M  V30 75 1 33 73
M  V30 76 1 33 74
M  V30 END BOND
M  V30 BEGIN COLLECTION
M  V30 MDLV30/STEABS ATOMS=(11 3 7 10 12 13 15 19 20 23 27 29)
M  V30 END COLLECTION
M  V30 END CTAB
M  END
>  <level_0>
1625

>  <index>
1625

>  <NO.>
1626

>  <Name>
netilmicin

>  <SMILES>
CCN[C@@H]1C[C@H](N)[C@@H](O[C@H]2OC(CN)=CC[C@H]2N)[C@H](O)[C@H]1O[C@H]1OC[C@](C)(O)[C@H](NC)[C@H]1O

>  <logBB>


>  <Class>
-1

>  <MW>
475.3

>  <nHBAcc>
12

>  <nHBDon>
8

>  <SLogP>
-3.2

>  <TopoPSA>
199.73

>  <MMFF94 Energy>
210.02

$$$$
CCOC(OCC)C(=O)OCC(=O)C1(O)Cc2c(O)c3c(c(O)c2C(OC2CC(N)C(O)C(C)O2)C1)C(=O)c1c(OC)cccc1C3=O
Actelion Java MolfileCreator 2.0

  0  0  0  0  0  0              0 V3000
M  V30 BEGIN CTAB
M  V30 COUNTS 87 91 0 0 0
M  V30 BEGIN ATOM
M  V30 1 O 4.26 3.6965 -1.2845 0
M  V30 2 C 4.2608 3.0561 -0.2413 0
M  V30 3 C 3.2298 2.0183 0.0228 0
M  V30 4 C 5.3706 3.2173 0.7266 0
M  V30 5 C 1.9617 2.0524 -0.5806 0
M  V30 6 C 3.5592 0.9442 0.844 0
M  V30 7 C 6.1478 4.3821 0.7981 0
M  V30 8 C 5.6866 2.1458 1.5613 0
M  V30 9 O 1.6161 3.1483 -1.3249 0
M  V30 10 C 1.0203 1.0108 -0.4074 0
M  V30 11 C 4.861 0.9265 1.5391 0
M  V30 12 C 2.6441 -0.104 1.0229 0
M  V30 13 O 5.8241 5.5061 0.0862 0
M  V30 14 C 7.2153 4.4695 1.6993 0
M  V30 15 C 6.7744 2.2204 2.4436 0
M  V30 16 C 1.373 -0.0771 0.4201 0
M  V30 17 C -0.3797 1.1052 -1.0126 0
M  V30 18 O 5.2224 -0.0867 2.1312 0
M  V30 19 O 2.9431 -1.1995 1.7963 0
M  V30 20 C 6.6613 5.6348 -1.064 0
M  V30 21 C 7.538 3.384 2.5109 0
M  V30 22 C 0.4334 -1.2473 0.6471 0
M  V30 23 O -0.2605 1.6615 -2.3382 0
M  V30 24 C -1.1002 -0.246 -1.0543 0
M  V30 25 C -1.0298 -0.9593 0.288 0
M  V30 26 C -1.5122 2.0245 -2.9329 0
M  V30 27 O -1.604 -0.111 1.2868 0
M  V30 28 C -1.8299 -2.2749 0.1878 0
M  V30 29 O -2.1102 0.912 -3.5969 0
M  V30 30 C -1.2955 3.1909 -3.897 0
M  V30 31 O -1.2873 -3.371 0.0187 0
M  V30 32 C -3.3513 -2.1776 0.3097 0
M  V30 33 C -1.3337 0.4235 -4.6991 0
M  V30 34 C -0.4802 2.7517 -5.1165 0
M  V30 35 O -3.8795 -3.1515 1.2113 0
M  V30 36 C -1.1306 1.5135 -5.7708 0
M  V30 37 C -2.0529 -0.8075 -5.2384 0
M  V30 38 N -0.3873 3.8775 -6.0645 0
M  V30 39 C -3.4243 -3.0255 2.4995 0
M  V30 40 O -2.3719 1.9228 -6.369 0
M  V30 41 O -2.6353 -2.1541 2.8593 0
M  V30 42 C -3.9954 -4.1646 3.3879 0
M  V30 43 O -3.5805 -4.0847 4.7473 0
M  V30 44 O -5.4236 -4.1021 3.3171 0
M  V30 45 C -2.2589 -4.5772 4.9495 0
M  V30 46 C -6.0393 -5.2596 3.873 0
M  V30 47 C -1.9052 -4.402 6.4133 0
M  V30 48 C -7.541 -5.122 3.7155 0
M  V30 49 H 0.9883 2.8508 -2.0117 0
M  V30 50 H 7.7873 5.3913 1.7756 0
M  V30 51 H 7.0198 1.3791 3.0898 0
M  V30 52 H -0.9411 1.8133 -0.3881 0
M  V30 53 H 3.87 -1.1149 2.1175 0
M  V30 54 H 7.6571 5.9855 -0.773 0
M  V30 55 H 6.2149 6.3867 -1.7216 0
M  V30 56 H 6.7428 4.6963 -1.624 0
M  V30 57 H 8.3715 3.4513 3.2063 0
M  V30 58 H 0.8219 -2.0816 0.049 0
M  V30 59 H 0.4753 -1.5437 1.7033 0
M  V30 60 H -2.1513 -0.0804 -1.3201 0
M  V30 61 H -0.6828 -0.8779 -1.8501 0
M  V30 62 H -2.2073 2.3603 -2.1541 0
M  V30 63 H -1.6451 -0.621 2.1275 0
M  V30 64 H -0.7789 4.0101 -3.3819 0
M  V30 65 H -2.2751 3.5654 -4.2218 0
M  V30 66 H -3.6838 -1.1808 0.614 0
M  V30 67 H -3.773 -2.3688 -0.6824 0
M  V30 68 H -0.3546 0.0992 -4.324 0
M  V30 69 H 0.5364 2.4957 -4.7944 0
M  V30 70 H -0.4909 1.1372 -6.5778 0
M  V30 71 H -1.5459 -1.2118 -6.1194 0
M  V30 72 H -3.0949 -0.5874 -5.4932 0
M  V30 73 H -2.0861 -1.588 -4.4697 0
M  V30 74 H -1.3276 4.0131 -6.4516 0
M  V30 75 H 0.1759 3.5956 -6.8658 0
M  V30 76 H -2.7812 1.1433 -6.7796 0
M  V30 77 H -3.656 -5.1114 2.9457 0
M  V30 78 H -1.5432 -4.0285 4.3292 0
M  V30 79 H -2.219 -5.6397 4.6853 0
M  V30 80 H -5.7883 -5.3484 4.9354 0
M  V30 81 H -5.6934 -6.1554 3.3456 0
M  V30 82 H -0.8979 -4.7748 6.6187 0
M  V30 83 H -1.9562 -3.3458 6.6981 0
M  V30 84 H -2.6173 -4.9385 7.0492 0
M  V30 85 H -8.0582 -5.9927 4.1281 0
M  V30 86 H -7.9014 -4.2223 4.2255 0
M  V30 87 H -7.81 -5.0187 2.659 0
M  V30 END ATOM
M  V30 BEGIN BOND
M  V30 1 2 1 2
M  V30 2 1 2 3
M  V30 3 1 2 4
M  V30 4 2 3 5
M  V30 5 1 3 6
M  V30 6 2 4 7
M  V30 7 1 4 8
M  V30 8 1 5 9
M  V30 9 1 5 10
M  V30 10 1 6 11
M  V30 11 2 6 12
M  V30 12 1 7 13
M  V30 13 1 7 14
M  V30 14 2 8 15
M  V30 15 2 10 16
M  V30 16 1 10 17
M  V30 17 2 11 18
M  V30 18 1 12 19
M  V30 19 1 13 20
M  V30 20 2 14 21
M  V30 21 1 16 22
M  V30 22 1 17 23
M  V30 23 1 17 24
M  V30 24 1 22 25
M  V30 25 1 23 26
M  V30 26 1 25 27
M  V30 27 1 25 28
M  V30 28 1 26 29
M  V30 29 1 26 30
M  V30 30 2 28 31
M  V30 31 1 28 32
M  V30 32 1 29 33
M  V30 33 1 30 34
M  V30 34 1 32 35
M  V30 35 1 33 36
M  V30 36 1 33 37
M  V30 37 1 34 38
M  V30 38 1 35 39
M  V30 39 1 36 40
M  V30 40 2 39 41
M  V30 41 1 39 42
M  V30 42 1 42 43
M  V30 43 1 42 44
M  V30 44 1 43 45
M  V30 45 1 44 46
M  V30 46 1 45 47
M  V30 47 1 46 48
M  V30 48 1 8 11
M  V30 49 1 12 16
M  V30 50 1 15 21
M  V30 51 1 24 25
M  V30 52 1 34 36
M  V30 53 1 9 49
M  V30 54 1 14 50
M  V30 55 1 15 51
M  V30 56 1 17 52
M  V30 57 1 19 53
M  V30 58 1 20 54
M  V30 59 1 20 55
M  V30 60 1 20 56
M  V30 61 1 21 57
M  V30 62 1 22 58
M  V30 63 1 22 59
M  V30 64 1 24 60
M  V30 65 1 24 61
M  V30 66 1 26 62
M  V30 67 1 27 63
M  V30 68 1 30 64
M  V30 69 1 30 65
M  V30 70 1 32 66
M  V30 71 1 32 67
M  V30 72 1 33 68
M  V30 73 1 34 69
M  V30 74 1 36 70
M  V30 75 1 37 71
M  V30 76 1 37 72
M  V30 77 1 37 73
M  V30 78 1 38 74
M  V30 79 1 38 75
M  V30 80 1 40 76
M  V30 81 1 42 77
M  V30 82 1 45 78
M  V30 83 1 45 79
M  V30 84 1 46 80
M  V30 85 1 46 81
M  V30 86 1 47 82
M  V30 87 1 47 83
M  V30 88 1 47 84
M  V30 89 1 48 85
M  V30 90 1 48 86
M  V30 91 1 48 87
M  V30 END BOND
M  V30 END CTAB
M  END
>  <level_0>
1652

>  <index>
1652

>  <NO.>
1653

>  <Name>
detorubicin

>  <SMILES>
CCOC(OCC)C(=O)OCC(=O)C1(O)Cc2c(O)c3c(c(O)c2C(OC2CC(N)C(O)C(C)O2)C1)C(=O)c1c(OC)cccc1C3=O

>  <logBB>


>  <Class>
-1

>  <MW>
673.24

>  <nHBAcc>
15

>  <nHBDon>
5

>  <SLogP>
0.95

>  <TopoPSA>
230.6

>  <MMFF94 Energy>
183.76

$$$$
CCS[C@]1(SC)CC[C@H]2[C@@H]3CCC4=CC(=O)C=C[C@]4(C)[C@@]3(F)[C@@H](O)C[C@@]21C
Actelion Java MolfileCreator 2.0

  0  0  0  0  0  0              0 V3000
M  V30 BEGIN CTAB
M  V30 COUNTS 58 61 0 0 0
M  V30 BEGIN ATOM
M  V30 1 S -0.9868 0.2466 -3.3747 0
M  V30 2 C -1.4984 1.4184 -2.0006 0 CFG=1
M  V30 3 C -2.4082 -0.8913 -3.4949 0
M  V30 4 S -3.2673 1.9324 -2.2467 0
M  V30 5 C -1.171 0.903 -0.532 0 CFG=2
M  V30 6 C -0.5472 2.6575 -2.099 0
M  V30 7 C -1.9582 -2.1931 -4.1367 0
M  V30 8 C -3.159 2.8833 -3.7881 0
M  V30 9 C 0.3713 1.0515 -0.5145 0 CFG=1
M  V30 10 C -1.4855 -0.5712 -0.1937 0
M  V30 11 C -1.8576 1.8258 0.5258 0
M  V30 12 C 0.6103 2.4368 -1.104 0
M  V30 13 C 1.0191 0.7145 0.8401 0 CFG=1
M  V30 14 C -0.8548 -1.0558 1.134 0 CFG=1
M  V30 15 C 0.6759 -0.7639 1.2239 0 CFG=1
M  V30 16 C 2.5441 0.9266 0.7752 0
M  V30 17 O -1.5826 -0.5288 2.2375 0
M  V30 18 F 1.2375 -1.5474 0.2249 0
M  V30 19 C 1.3792 -1.2016 2.5743 0 CFG=2
M  V30 20 C 3.2405 0.5166 2.0685 0
M  V30 21 C 2.8839 -0.9005 2.4373 0
M  V30 22 C 1.1469 -2.6867 2.8533 0
M  V30 23 C 0.8619 -0.4505 3.8233 0
M  V30 24 C 3.8472 -1.8287 2.5784 0
M  V30 25 C 2.1102 -3.6071 2.992 0
M  V30 26 C 3.5338 -3.2402 2.8785 0
M  V30 27 O 4.4196 -4.0722 3.0287 0
M  V30 28 H -2.8342 -1.1053 -2.513 0
M  V30 29 H -3.182 -0.4337 -4.1187 0
M  V30 30 H -1.0549 3.5854 -1.8055 0
M  V30 31 H -0.1616 2.8325 -3.1105 0
M  V30 32 H -2.8088 -2.8774 -4.2248 0
M  V30 33 H -1.1922 -2.6937 -3.5346 0
M  V30 34 H -1.5604 -2.0301 -5.1442 0
M  V30 35 H -4.1653 3.2166 -4.0582 0
M  V30 36 H -2.7781 2.2744 -4.6104 0
M  V30 37 H -2.5373 3.7724 -3.6621 0
M  V30 38 H 0.8036 0.3387 -1.2321 0
M  V30 39 H -1.0952 -1.2312 -0.9749 0
M  V30 40 H -2.5723 -0.7147 -0.1609 0
M  V30 41 H -1.789 2.8878 0.2699 0
M  V30 42 H -1.4249 1.7386 1.5236 0
M  V30 43 H -2.9214 1.5817 0.6254 0
M  V30 44 H 0.596 3.2115 -0.3287 0
M  V30 45 H 1.5789 2.4964 -1.6113 0
M  V30 46 H 0.6334 1.3938 1.6063 0
M  V30 47 H -0.9995 -2.1423 1.1598 0
M  V30 48 H 2.9655 0.3544 -0.0617 0
M  V30 49 H 2.7683 1.9816 0.5786 0
M  V30 50 H -2.5197 -0.7666 2.1178 0
M  V30 51 H 2.9539 1.194 2.8813 0
M  V30 52 H 4.3233 0.6348 1.94 0
M  V30 53 H 0.1165 -3.0135 2.9749 0
M  V30 54 H -0.1261 -0.7999 4.1413 0
M  V30 55 H 0.792 0.6299 3.6682 0
M  V30 56 H 1.5285 -0.6071 4.682 0
M  V30 57 H 4.9015 -1.6044 2.4641 0
M  V30 58 H 1.8968 -4.6479 3.2022 0
M  V30 END ATOM
M  V30 BEGIN BOND
M  V30 1 1 1 2
M  V30 2 1 1 3
M  V30 3 1 2 4
M  V30 4 1 2 5
M  V30 5 1 2 6
M  V30 6 1 3 7
M  V30 7 1 4 8
M  V30 8 1 5 9
M  V30 9 1 5 10
M  V30 10 1 5 11
M  V30 11 1 6 12
M  V30 12 1 9 13
M  V30 13 1 10 14
M  V30 14 1 13 15
M  V30 15 1 13 16
M  V30 16 1 14 17
M  V30 17 1 15 18
M  V30 18 1 15 19
M  V30 19 1 16 20
M  V30 20 1 19 21
M  V30 21 1 19 22
M  V30 22 1 19 23
M  V30 23 2 21 24
M  V30 24 2 22 25
M  V30 25 1 24 26
M  V30 26 2 26 27
M  V30 27 1 9 12
M  V30 28 1 14 15
M  V30 29 1 20 21
M  V30 30 1 25 26
M  V30 31 1 3 28
M  V30 32 1 3 29
M  V30 33 1 6 30
M  V30 34 1 6 31
M  V30 35 1 7 32
M  V30 36 1 7 33
M  V30 37 1 7 34
M  V30 38 1 8 35
M  V30 39 1 8 36
M  V30 40 1 8 37
M  V30 41 1 9 38
M  V30 42 1 10 39
M  V30 43 1 10 40
M  V30 44 1 11 41
M  V30 45 1 11 42
M  V30 46 1 11 43
M  V30 47 1 12 44
M  V30 48 1 12 45
M  V30 49 1 13 46
M  V30 50 1 14 47
M  V30 51 1 16 48
M  V30 52 1 16 49
M  V30 53 1 17 50
M  V30 54 1 20 51
M  V30 55 1 20 52
M  V30 56 1 22 53
M  V30 57 1 23 54
M  V30 58 1 23 55
M  V30 59 1 23 56
M  V30 60 1 24 57
M  V30 61 1 25 58
M  V30 END BOND
M  V30 BEGIN COLLECTION
M  V30 MDLV30/STEABS ATOMS=(7 2 5 9 13 14 15 19)
M  V30 END COLLECTION
M  V30 END CTAB
M  END
>  <level_0>
1662

>  <index>
1662

>  <NO.>
1663

>  <Name>
tipredane

>  <SMILES>
CCS[C@]1(SC)CC[C@H]2[C@@H]3CCC4=CC(=O)C=C[C@]4(C)[C@@]3(F)[C@@H](O)C[C@@]21C

>  <logBB>


>  <Class>
1

>  <MW>
410.17

>  <nHBAcc>
4

>  <nHBDon>
1

>  <SLogP>
5.17

>  <TopoPSA>
37.3

>  <MMFF94 Energy>
128.55

$$$$
CCSc1ccc2c(c1)N(CCCN1CCN(C)CC1)c1ccccc1S2
Actelion Java MolfileCreator 2.0

  0  0  0  0  0  0              0 V3000
M  V30 BEGIN CTAB
M  V30 COUNTS 56 59 0 0 0
M  V30 BEGIN ATOM
M  V30 1 S -3.4105 3.0853 1.2982 0
M  V30 2 C -1.7702 2.8575 0.6458 0
M  V30 3 C -3.5035 1.8029 2.53 0
M  V30 4 C -0.9875 1.7176 0.91 0
M  V30 5 C -1.289 3.8732 -0.1983 0
M  V30 6 C -2.5622 0.7596 2.626 0
M  V30 7 C -4.5914 1.8707 3.4195 0
M  V30 8 N -1.4692 0.6554 1.7264 0
M  V30 9 C 0.3043 1.6765 0.3416 0
M  V30 10 C -0.0215 3.7884 -0.7708 0
M  V30 11 C -2.7245 -0.1535 3.6885 0
M  V30 12 C -4.7444 0.9315 4.435 0
M  V30 13 C -1.1169 -0.716 1.272 0
M  V30 14 C 0.7886 2.6943 -0.49 0
M  V30 15 C -3.8025 -0.076 4.5766 0
M  V30 16 C -1.9214 -1.1011 0.0213 0
M  V30 17 S 2.4166 2.5373 -1.2017 0
M  V30 18 C -1.5098 -2.4673 -0.5397 0
M  V30 19 C 3.2114 4.0059 -0.4702 0
M  V30 20 N -0.0844 -2.5628 -0.8901 0
M  V30 21 C 4.6865 4.0268 -0.8288 0
M  V30 22 C 0.2671 -1.7014 -2.0425 0
M  V30 23 C 0.2714 -3.9605 -1.2201 0
M  V30 24 C 1.7483 -1.8521 -2.4616 0
M  V30 25 C 1.7535 -4.1095 -1.6331 0
M  V30 26 N 2.0979 -3.2497 -2.7803 0
M  V30 27 C 3.5165 -3.3644 -3.1079 0
M  V30 28 H -1.9074 4.7408 -0.4198 0
M  V30 29 H -5.3245 2.6697 3.329 0
M  V30 30 H 0.9723 0.849 0.5608 0
M  V30 31 H 0.3163 4.5801 -1.4337 0
M  V30 32 H -1.9867 -0.9284 3.8741 0
M  V30 33 H -5.5846 0.9996 5.1206 0
M  V30 34 H -1.3006 -1.4733 2.0401 0
M  V30 35 H -0.0423 -0.8024 1.0911 0
M  V30 36 H -3.8934 -0.7987 5.3833 0
M  V30 37 H -1.8324 -0.3348 -0.7563 0
M  V30 38 H -2.9879 -1.1387 0.2786 0
M  V30 39 H -1.7399 -3.2175 0.2282 0
M  V30 40 H -2.1398 -2.7043 -1.4068 0
M  V30 41 H 2.7293 4.9134 -0.8464 0
M  V30 42 H 3.0962 3.9778 0.6181 0
M  V30 43 H 5.1641 4.9081 -0.3878 0
M  V30 44 H 4.8364 4.0771 -1.9126 0
M  V30 45 H 5.2065 3.1425 -0.4449 0
M  V30 46 H -0.375 -1.9318 -2.9031 0
M  V30 47 H 0.1083 -0.6483 -1.7885 0
M  V30 48 H -0.3675 -4.339 -2.0296 0
M  V30 49 H 0.0991 -4.5963 -0.3431 0
M  V30 50 H 2.3876 -1.4675 -1.6549 0
M  V30 51 H 1.9205 -1.2226 -3.343 0
M  V30 52 H 2.3908 -3.8765 -0.7691 0
M  V30 53 H 1.9317 -5.1589 -1.897 0
M  V30 54 H 4.1626 -3.0571 -2.2775 0
M  V30 55 H 3.7597 -2.7471 -3.9798 0
M  V30 56 H 3.7659 -4.3975 -3.3738 0
M  V30 END ATOM
M  V30 BEGIN BOND
M  V30 1 1 1 2
M  V30 2 1 1 3
M  V30 3 2 2 4
M  V30 4 1 2 5
M  V30 5 2 3 6
M  V30 6 1 3 7
M  V30 7 1 4 8
M  V30 8 1 4 9
M  V30 9 2 5 10
M  V30 10 1 6 11
M  V30 11 2 7 12
M  V30 12 1 8 13
M  V30 13 2 9 14
M  V30 14 2 11 15
M  V30 15 1 13 16
M  V30 16 1 14 17
M  V30 17 1 16 18
M  V30 18 1 17 19
M  V30 19 1 18 20
M  V30 20 1 19 21
M  V30 21 1 20 22
M  V30 22 1 20 23
M  V30 23 1 22 24
M  V30 24 1 23 25
M  V30 25 1 24 26
M  V30 26 1 26 27
M  V30 27 1 6 8
M  V30 28 1 10 14
M  V30 29 1 12 15
M  V30 30 1 25 26
M  V30 31 1 5 28
M  V30 32 1 7 29
M  V30 33 1 9 30
M  V30 34 1 10 31
M  V30 35 1 11 32
M  V30 36 1 12 33
M  V30 37 1 13 34
M  V30 38 1 13 35
M  V30 39 1 15 36
M  V30 40 1 16 37
M  V30 41 1 16 38
M  V30 42 1 18 39
M  V30 43 1 18 40
M  V30 44 1 19 41
M  V30 45 1 19 42
M  V30 46 1 21 43
M  V30 47 1 21 44
M  V30 48 1 21 45
M  V30 49 1 22 46
M  V30 50 1 22 47
M  V30 51 1 23 48
M  V30 52 1 23 49
M  V30 53 1 24 50
M  V30 54 1 24 51
M  V30 55 1 25 52
M  V30 56 1 25 53
M  V30 57 1 27 54
M  V30 58 1 27 55
M  V30 59 1 27 56
M  V30 END BOND
M  V30 END CTAB
M  END
>  <level_0>
1663

>  <index>
1663

>  <NO.>
1664

>  <Name>
thiethylperazine

>  <SMILES>
CCSc1ccc2c(c1)N(CCCN1CCN(C)CC1)c1ccccc1S2

>  <logBB>


>  <Class>
1

>  <MW>
399.18

>  <nHBAcc>
5

>  <nHBDon>
0

>  <SLogP>
5.04

>  <TopoPSA>
9.72

>  <MMFF94 Energy>
128.82

$$$$
CC[C@@H](CO)NCCN[C@@H](CC)CO
Actelion Java MolfileCreator 2.0

  0  0  0  0  0  0              0 V3000
M  V30 BEGIN CTAB
M  V30 COUNTS 38 37 0 0 0
M  V30 BEGIN ATOM
M  V30 1 O 3.8421 -0.1534 1.4586 0
M  V30 2 C 3.1681 -1.4048 1.3356 0
M  V30 3 C 1.7516 -1.3307 1.9589 0 CFG=1
M  V30 4 N 0.8877 -0.4815 1.1157 0
M  V30 5 C 1.188 -2.7483 2.1993 0
M  V30 6 C -0.405 -0.1638 1.7361 0
M  V30 7 C 0.9374 -3.5719 0.9423 0
M  V30 8 C -1.1805 0.893 0.9168 0
M  V30 9 N -1.1766 0.5708 -0.5195 0
M  V30 10 C -2.0221 1.4816 -1.3136 0 CFG=2
M  V30 11 C -2.2033 0.8729 -2.7231 0
M  V30 12 C -1.5129 2.9412 -1.3708 0
M  V30 13 O -3.0668 1.6766 -3.5217 0
M  V30 14 C -0.1178 3.1232 -1.9546 0
M  V30 15 H 4.6464 -0.2081 0.9173 0
M  V30 16 H 3.7766 -2.154 1.8528 0
M  V30 17 H 3.1221 -1.6695 0.2734 0
M  V30 18 H 1.8589 -0.8349 2.933 0
M  V30 19 H 0.7074 -0.9332 0.2206 0
M  V30 20 H 1.8882 -3.3005 2.8392 0
M  V30 21 H 0.2543 -2.686 2.7709 0
M  V30 22 H -1.0203 -1.0684 1.8011 0
M  V30 23 H -0.2624 0.223 2.7517 0
M  V30 24 H 1.8535 -3.7073 0.3605 0
M  V30 25 H 0.5704 -4.5662 1.2177 0
M  V30 26 H 0.182 -3.1091 0.3006 0
M  V30 27 H -0.7089 1.8682 1.0835 0
M  V30 28 H -2.2073 0.9425 1.2973 0
M  V30 29 H -0.2072 0.6387 -0.8342 0
M  V30 30 H -3.0237 1.5147 -0.8629 0
M  V30 31 H -1.2451 0.7725 -3.2437 0
M  V30 32 H -2.6526 -0.1239 -2.6458 0
M  V30 33 H -2.215 3.544 -1.9602 0
M  V30 34 H -1.53 3.3782 -0.3653 0
M  V30 35 H -3.1717 1.2152 -4.3711 0
M  V30 36 H -0.0603 2.7574 -2.9835 0
M  V30 37 H 0.1418 4.1871 -1.9681 0
M  V30 38 H 0.6403 2.6083 -1.3577 0
M  V30 END ATOM
M  V30 BEGIN BOND
M  V30 1 1 1 2
M  V30 2 1 2 3
M  V30 3 1 3 4
M  V30 4 1 3 5
M  V30 5 1 4 6
M  V30 6 1 5 7
M  V30 7 1 6 8
M  V30 8 1 8 9
M  V30 9 1 9 10
M  V30 10 1 10 11
M  V30 11 1 10 12
M  V30 12 1 11 13
M  V30 13 1 12 14
M  V30 14 1 1 15
M  V30 15 1 2 16
M  V30 16 1 2 17
M  V30 17 1 3 18
M  V30 18 1 4 19
M  V30 19 1 5 20
M  V30 20 1 5 21
M  V30 21 1 6 22
M  V30 22 1 6 23
M  V30 23 1 7 24
M  V30 24 1 7 25
M  V30 25 1 7 26
M  V30 26 1 8 27
M  V30 27 1 8 28
M  V30 28 1 9 29
M  V30 29 1 10 30
M  V30 30 1 11 31
M  V30 31 1 11 32
M  V30 32 1 12 33
M  V30 33 1 12 34
M  V30 34 1 13 35
M  V30 35 1 14 36
M  V30 36 1 14 37
M  V30 37 1 14 38
M  V30 END BOND
M  V30 BEGIN COLLECTION
M  V30 MDLV30/STEABS ATOMS=(2 3 10)
M  V30 END COLLECTION
M  V30 END CTAB
M  END
>  <level_0>
1664

>  <index>
1664

>  <NO.>
1665

>  <Name>
ethambutol

>  <SMILES>
CC[C@@H](CO)NCCN[C@@H](CC)CO

>  <logBB>


>  <Class>
-1

>  <MW>
204.18

>  <nHBAcc>
4

>  <nHBDon>
4

>  <SLogP>
-0.29

>  <TopoPSA>
64.52

>  <MMFF94 Energy>
64.85

$$$$
CC[C@@]1(O)C[C@H](OC2CC(N(C)C)C(OC3CC(O)C(OC4CCC(=O)C(C)O4)C(C)O3)C(C)O2)c2c(cc3c(c2O)C(=O)c2c(O)cccc2C3=O)[C@H]1C(=O)OC
Actelion Java MolfileCreator 2.0

  0  0  0  0  0  0              0 V3000
M  V30 BEGIN CTAB
M  V30 COUNTS 111 117 0 0 0
M  V30 BEGIN ATOM
M  V30 1 O 4.1863 4.1863 -0.6431 0
M  V30 2 C 3.6672 5.0464 0.0627 0
M  V30 3 C 2.2774 4.9373 0.5777 0
M  V30 4 C 4.491 6.2185 0.4258 0
M  V30 5 C 1.4054 3.9142 0.1768 0
M  V30 6 C 1.8304 5.8539 1.5243 0
M  V30 7 C 5.7643 6.4043 -0.1332 0
M  V30 8 C 4.014 7.1501 1.3443 0
M  V30 9 O 1.8165 2.9917 -0.7453 0
M  V30 10 C 0.098 3.7897 0.7001 0
M  V30 11 C 2.6875 6.9739 1.96 0
M  V30 12 C 0.5536 5.7243 2.0897 0
M  V30 13 O 6.3187 5.5353 -1.0351 0
M  V30 14 C 6.5413 7.5079 0.2139 0
M  V30 15 C 4.7953 8.2598 1.6992 0
M  V30 16 C -0.3159 4.6905 1.6972 0
M  V30 17 C -0.7947 2.65 0.2338 0 CFG=1
M  V30 18 O 2.2962 7.7544 2.8201 0
M  V30 19 C 6.0568 8.4378 1.1314 0
M  V30 20 C -1.6856 4.6007 2.3661 0 CFG=1
M  V30 21 O -0.1659 1.4925 0.7884 0
M  V30 22 C -2.2561 2.8027 0.6694 0
M  V30 23 C -2.5553 5.7681 1.9028 0
M  V30 24 C -2.3908 3.2356 2.1403 0 CFG=1
M  V30 25 C -0.6841 0.2258 0.387 0
M  V30 26 O -2.9495 5.9358 0.756 0
M  V30 27 O -2.8138 6.6107 2.9431 0
M  V30 28 O -1.7685 2.2413 2.9828 0
M  V30 29 C -3.888 3.2247 2.5414 0
M  V30 30 O -1.0058 0.1126 -0.9933 0
M  V30 31 C 0.2954 -0.8598 0.8328 0
M  V30 32 C -3.6071 7.7458 2.5931 0
M  V30 33 C -4.1547 3.529 4.0125 0
M  V30 34 C 0.1191 0.0552 -1.8771 0
M  V30 35 C 1.5789 -0.8944 -0.0339 0
M  V30 36 C 1.1035 -1.0763 -1.5101 0
M  V30 37 C -0.4392 -0.1129 -3.288 0
M  V30 38 N 2.4753 0.2948 0.1666 0
M  V30 39 O 0.448 -2.3467 -1.7156 0
M  V30 40 C 2.9067 0.4135 1.5713 0
M  V30 41 C 3.6889 0.2133 -0.6663 0
M  V30 42 C 1.3429 -3.4594 -1.7331 0
M  V30 43 O 1.3473 -4.1349 -0.4811 0
M  V30 44 C 0.9404 -4.4092 -2.8577 0
M  V30 45 C 0.0752 -4.6934 -0.1245 0
M  V30 46 C -0.4088 -5.0625 -2.5766 0
M  V30 47 C -0.4308 -5.7029 -1.1728 0
M  V30 48 C 0.2445 -5.3436 1.2468 0
M  V30 49 O -1.4671 -4.1119 -2.7426 0
M  V30 50 O -1.7254 -6.1615 -0.7603 0
M  V30 51 C -2.3604 -7.0614 -1.6602 0
M  V30 52 O -1.5155 -8.1725 -1.9492 0
M  V30 53 C -3.6278 -7.5635 -0.9687 0
M  V30 54 C -2.1046 -9.0768 -2.8801 0
M  V30 55 C -4.3993 -8.522 -1.8596 0
M  V30 56 C -3.4729 -9.582 -2.4069 0
M  V30 57 C -1.1282 -10.2262 -3.0785 0
M  V30 58 O -3.8568 -10.7402 -2.5639 0
M  V30 59 H 1.8273 2.1174 -0.2893 0
M  V30 60 H 0.234 6.4399 2.8495 0
M  V30 61 H 5.6866 4.7901 -1.162 0
M  V30 62 H 7.5251 7.6387 -0.2305 0
M  V30 63 H 4.4236 8.9881 2.4186 0
M  V30 64 H -0.7633 2.6107 -0.8609 0
M  V30 65 H 6.6624 9.2987 1.4052 0
M  V30 66 H -1.508 4.7018 3.4466 0
M  V30 67 H -2.788 1.8578 0.5153 0
M  V30 68 H -2.7461 3.5382 0.0206 0
M  V30 69 H -1.6145 0.0647 0.9417 0
M  V30 70 H -0.8788 2.0459 2.6286 0
M  V30 71 H -4.2964 2.2235 2.3482 0
M  V30 72 H -4.4653 3.917 1.9182 0
M  V30 73 H -0.2067 -1.8283 0.7404 0
M  V30 74 H 0.5335 -0.7505 1.8953 0
M  V30 75 H -3.7526 8.3481 3.4941 0
M  V30 76 H -3.0916 8.3576 1.8465 0
M  V30 77 H -4.5881 7.4284 2.2261 0
M  V30 78 H -5.2293 3.4699 4.2145 0
M  V30 79 H -3.6551 2.8081 4.6667 0
M  V30 80 H -3.8219 4.5318 4.29 0
M  V30 81 H 0.6373 1.0165 -1.8453 0
M  V30 82 H 2.1414 -1.7861 0.2691 0
M  V30 83 H 1.9405 -1.0355 -2.2145 0
M  V30 84 H 0.3634 -0.1763 -4.0286 0
M  V30 85 H -1.08 0.7384 -3.5432 0
M  V30 86 H -1.0676 -1.0062 -3.3677 0
M  V30 87 H 3.6147 1.2427 1.6881 0
M  V30 88 H 2.0695 0.6596 2.2301 0
M  V30 89 H 3.3882 -0.5016 1.9331 0
M  V30 90 H 4.3738 1.0381 -0.4362 0
M  V30 91 H 3.4501 0.328 -1.7271 0
M  V30 92 H 4.2262 -0.7299 -0.5194 0
M  V30 93 H 2.3695 -3.1273 -1.9269 0
M  V30 94 H 0.8922 -3.8565 -3.803 0
M  V30 95 H 1.698 -5.1966 -2.9483 0
M  V30 96 H -0.6582 -3.8872 -0.0078 0
M  V30 97 H -0.5843 -5.8329 -3.3349 0
M  V30 98 H 0.2622 -6.555 -1.1789 0
M  V30 99 H -0.6993 -5.7466 1.6251 0
M  V30 100 H 0.6215 -4.6114 1.9695 0
M  V30 101 H 0.9816 -6.153 1.2066 0
M  V30 102 H -1.215 -3.295 -2.264 0
M  V30 103 H -2.6279 -6.534 -2.5833 0
M  V30 104 H -4.2639 -6.7208 -0.6741 0
M  V30 105 H -3.3477 -8.0814 -0.0417 0
M  V30 106 H -2.2495 -8.5604 -3.8368 0
M  V30 107 H -4.844 -7.9909 -2.7078 0
M  V30 108 H -5.202 -9.0007 -1.2896 0
M  V30 109 H -1.4921 -10.9379 -3.826 0
M  V30 110 H -0.1513 -9.8498 -3.4002 0
M  V30 111 H -0.9674 -10.7679 -2.1395 0
M  V30 END ATOM
M  V30 BEGIN BOND
M  V30 1 2 1 2
M  V30 2 1 2 3
M  V30 3 1 2 4
M  V30 4 2 3 5
M  V30 5 1 3 6
M  V30 6 2 4 7
M  V30 7 1 4 8
M  V30 8 1 5 9
M  V30 9 1 5 10
M  V30 10 1 6 11
M  V30 11 2 6 12
M  V30 12 1 7 13
M  V30 13 1 7 14
M  V30 14 2 8 15
M  V30 15 2 10 16
M  V30 16 1 10 17
M  V30 17 2 11 18
M  V30 18 2 14 19
M  V30 19 1 16 20
M  V30 20 1 17 21
M  V30 21 1 17 22
M  V30 22 1 20 23
M  V30 23 1 20 24
M  V30 24 1 21 25
M  V30 25 2 23 26
M  V30 26 1 23 27
M  V30 27 1 24 28
M  V30 28 1 24 29
M  V30 29 1 25 30
M  V30 30 1 25 31
M  V30 31 1 27 32
M  V30 32 1 29 33
M  V30 33 1 30 34
M  V30 34 1 31 35
M  V30 35 1 34 36
M  V30 36 1 34 37
M  V30 37 1 35 38
M  V30 38 1 36 39
M  V30 39 1 38 40
M  V30 40 1 38 41
M  V30 41 1 39 42
M  V30 42 1 42 43
M  V30 43 1 42 44
M  V30 44 1 43 45
M  V30 45 1 44 46
M  V30 46 1 45 47
M  V30 47 1 45 48
M  V30 48 1 46 49
M  V30 49 1 47 50
M  V30 50 1 50 51
M  V30 51 1 51 52
M  V30 52 1 51 53
M  V30 53 1 52 54
M  V30 54 1 53 55
M  V30 55 1 54 56
M  V30 56 1 54 57
M  V30 57 2 56 58
M  V30 58 1 8 11
M  V30 59 1 12 16
M  V30 60 1 15 19
M  V30 61 1 22 24
M  V30 62 1 35 36
M  V30 63 1 46 47
M  V30 64 1 55 56
M  V30 65 1 9 59
M  V30 66 1 12 60
M  V30 67 1 13 61
M  V30 68 1 14 62
M  V30 69 1 15 63
M  V30 70 1 17 64
M  V30 71 1 19 65
M  V30 72 1 20 66
M  V30 73 1 22 67
M  V30 74 1 22 68
M  V30 75 1 25 69
M  V30 76 1 28 70
M  V30 77 1 29 71
M  V30 78 1 29 72
M  V30 79 1 31 73
M  V30 80 1 31 74
M  V30 81 1 32 75
M  V30 82 1 32 76
M  V30 83 1 32 77
M  V30 84 1 33 78
M  V30 85 1 33 79
M  V30 86 1 33 80
M  V30 87 1 34 81
M  V30 88 1 35 82
M  V30 89 1 36 83
M  V30 90 1 37 84
M  V30 91 1 37 85
M  V30 92 1 37 86
M  V30 93 1 40 87
M  V30 94 1 40 88
M  V30 95 1 40 89
M  V30 96 1 41 90
M  V30 97 1 41 91
M  V30 98 1 41 92
M  V30 99 1 42 93
M  V30 100 1 44 94
M  V30 101 1 44 95
M  V30 102 1 45 96
M  V30 103 1 46 97
M  V30 104 1 47 98
M  V30 105 1 48 99
M  V30 106 1 48 100
M  V30 107 1 48 101
M  V30 108 1 49 102
M  V30 109 1 51 103
M  V30 110 1 53 104
M  V30 111 1 53 105
M  V30 112 1 54 106
M  V30 113 1 55 107
M  V30 114 1 55 108
M  V30 115 1 57 109
M  V30 116 1 57 110
M  V30 117 1 57 111
M  V30 END BOND
M  V30 BEGIN COLLECTION
M  V30 MDLV30/STEABS ATOMS=(3 17 20 24)
M  V30 END COLLECTION
M  V30 END CTAB
M  END
>  <level_0>
1666

>  <index>
1666

>  <NO.>
1667

>  <Name>
aclucinomycin a

>  <SMILES>
CC[C@@]1(O)C[C@H](OC2CC(N(C)C)C(OC3CC(O)C(OC4CCC(=O)C(C)O4)C(C)O3)C(C)O2)c2c(cc3c(c2O)C(=O)c2c(O)cccc2C3=O)[C@H]1C(=O)OC

>  <logBB>


>  <Class>
-1

>  <MW>
811.34

>  <nHBAcc>
16

>  <nHBDon>
4

>  <SLogP>
3.16

>  <TopoPSA>
217.05

>  <MMFF94 Energy>
165.52

$$$$
CC[C@@]1(O)C[C@H](O[C@H]2C[C@H](N(C)C)[C@H](O[C@H]3C[C@@H]4O[C@H]5CC(=O)[C@H](C)O[C@H]5O[C@@H]4[C@H](C)O3)[C@H](C)O2)c2c(O)c3c(c(O)c2[C@H]1O[C@H]1C[C@H](N(C)C)[C@H](O)[C@H](C)O1)C(=O)c1cccc(O)c1C3=O
Actelion Java MolfileCreator 2.0

  0  0  0  0  0  0              0 V3000
M  V30 BEGIN CTAB
M  V30 COUNTS 131 139 0 0 0
M  V30 BEGIN ATOM
M  V30 1 O -2.416 2.8191 -4.5943 0
M  V30 2 C -1.5842 3.6377 -4.2262 0
M  V30 3 C -1.155 3.6962 -2.803 0
M  V30 4 C -1.0591 4.6519 -5.1745 0
M  V30 5 C -1.2809 2.5985 -1.9385 0
M  V30 6 C -0.6219 4.88 -2.3024 0
M  V30 7 C -1.1098 4.4859 -6.5668 0
M  V30 8 C -0.5379 5.839 -4.6614 0
M  V30 9 O -1.6751 1.3857 -2.4404 0
M  V30 10 C -0.9521 2.6799 -0.5653 0
M  V30 11 C -0.4151 6.0265 -3.2069 0
M  V30 12 C -0.2547 4.9715 -0.9474 0
M  V30 13 O -1.5477 3.3154 -7.1164 0
M  V30 14 C -0.6744 5.5015 -7.4238 0
M  V30 15 C -0.1054 6.8621 -5.5177 0
M  V30 16 C -0.412 3.8837 -0.0682 0
M  V30 17 C -1.1687 1.4689 0.3316 0 CFG=1
M  V30 18 O -0.0983 7.1181 -2.7415 0
M  V30 19 O 0.2769 6.1277 -0.4281 0
M  V30 20 C -0.179 6.693 -6.898 0
M  V30 21 C -0.0263 4.0302 1.3977 0 CFG=1
M  V30 22 O -0.356 0.4237 -0.2308 0
M  V30 23 C -0.9066 1.7195 1.8239 0
M  V30 24 O -1.1663 4.6316 2.0309 0
M  V30 25 C 0.2878 2.6533 2.0616 0 CFG=1
M  V30 26 C -0.5351 -0.8638 0.3574 0 CFG=2
M  V30 27 C -0.9235 5.9474 2.5287 0 CFG=2
M  V30 28 O 1.4767 2.1035 1.4741 0
M  V30 29 C 0.5626 2.8389 3.574 0
M  V30 30 O 0.5686 -1.1694 1.2032 0
M  V30 31 C -0.721 -1.9036 -0.7436 0
M  V30 32 O -0.8297 5.9318 3.9477 0
M  V30 33 C -2.0332 6.8828 2.0518 0
M  V30 34 C 1.0891 1.6017 4.2953 0
M  V30 35 C 1.8098 -1.3454 0.4975 0 CFG=2
M  V30 36 C 0.5816 -2.1109 -1.5345 0 CFG=1
M  V30 37 C -2.0452 5.5401 4.5937 0 CFG=2
M  V30 38 C -3.4015 6.508 2.6558 0 CFG=1
M  V30 39 C 1.7354 -2.4958 -0.548 0 CFG=2
M  V30 40 C 2.8864 -1.4995 1.5619 0
M  V30 41 N 0.4737 -3.0297 -2.7015 0
M  V30 42 C -3.2384 6.4282 4.1985 0 CFG=2
M  V30 43 C -1.7816 5.5703 6.0954 0
M  V30 44 N -4.4762 7.4949 2.292 0
M  V30 45 O 1.449 -3.7751 0.0459 0
M  V30 46 C -0.4696 -4.1347 -2.5269 0
M  V30 47 C 0.1357 -2.2945 -3.9255 0
M  V30 48 O -3.0888 7.7586 4.7179 0
M  V30 49 C -4.5401 7.7402 0.8448 0
M  V30 50 C -5.8005 7.0346 2.7388 0
M  V30 51 C 2.5985 -4.533 0.422 0 CFG=2
M  V30 52 O 3.464 -4.8556 -0.6611 0
M  V30 53 C 2.1515 -5.7943 1.153 0
M  V30 54 C 2.8862 -5.7292 -1.6373 0 CFG=2
M  V30 55 C 1.4976 -6.7782 0.184 0 CFG=1
M  V30 56 C 2.4015 -7.0564 -1.0265 0 CFG=2
M  V30 57 C 3.9343 -5.9449 -2.7237 0
M  V30 58 O 1.102 -7.9936 0.8504 0
M  V30 59 O 3.5274 -7.8664 -0.6303 0
M  V30 60 C 2.2142 -8.8552 1.1583 0 CFG=2
M  V30 61 C 3.0902 -9.1154 -0.0832 0 CFG=1
M  V30 62 C 1.667 -10.1439 1.7493 0
M  V30 63 O 2.4087 -9.8666 -1.0849 0
M  V30 64 C 1.1014 -11.0355 0.6741 0
M  V30 65 C 1.8739 -11.1035 -0.6423 0 CFG=2
M  V30 66 O 0.1485 -11.7825 0.9031 0
M  V30 67 C 2.961 -12.1681 -0.5587 0
M  V30 68 H -1.1658 0.7037 -1.9641 0
M  V30 69 H -1.6924 3.4218 -8.0697 0
M  V30 70 H -0.7058 5.3749 -8.5028 0
M  V30 71 H 0.2952 7.7898 -5.1119 0
M  V30 72 H -2.2195 1.1652 0.2254 0
M  V30 73 H 0.2866 6.8168 -1.1319 0
M  V30 74 H 0.1605 7.4844 -7.5625 0
M  V30 75 H 0.8831 4.6406 1.4725 0
M  V30 76 H -1.8058 2.1673 2.2678 0
M  V30 77 H -0.7526 0.7711 2.3433 0
M  V30 78 H -1.44 -0.8801 0.9763 0
M  V30 79 H 0.026 6.3495 2.1615 0
M  V30 80 H 1.4445 1.1383 1.6034 0
M  V30 81 H -0.3455 3.1703 4.0862 0
M  V30 82 H 1.3128 3.6296 3.7035 0
M  V30 83 H -1.5227 -1.5802 -1.4177 0
M  V30 84 H -1.0302 -2.8447 -0.2734 0
M  V30 85 H -2.0772 6.8289 0.959 0
M  V30 86 H -1.7784 7.9125 2.3327 0
M  V30 87 H 1.2684 1.8371 5.3497 0
M  V30 88 H 0.3737 0.776 4.2602 0
M  V30 89 H 2.0369 1.2604 3.8689 0
M  V30 90 H 2.0352 -0.4132 -0.0374 0
M  V30 91 H 0.8779 -1.1311 -1.9373 0
M  V30 92 H -2.2699 4.5042 4.3115 0
M  V30 93 H -3.6828 5.5153 2.278 0
M  V30 94 H 2.6761 -2.5403 -1.1108 0
M  V30 95 H 2.9852 -0.5676 2.1303 0
M  V30 96 H 2.6184 -2.263 2.2989 0
M  V30 97 H 3.8606 -1.7268 1.1204 0
M  V30 98 H -4.138 6.0086 4.661 0
M  V30 99 H -2.672 5.2821 6.6621 0
M  V30 100 H -1.4578 6.5636 6.4244 0
M  V30 101 H -0.9697 4.8801 6.3501 0
M  V30 102 H -1.5134 -3.8014 -2.5135 0
M  V30 103 H -0.2762 -4.6917 -1.6075 0
M  V30 104 H -0.3609 -4.8525 -3.3482 0
M  V30 105 H -0.8358 -1.7932 -3.8513 0
M  V30 106 H 0.8997 -1.5407 -4.1467 0
M  V30 107 H 0.1116 -2.9699 -4.7881 0
M  V30 108 H -3.6267 8.32 4.122 0
M  V30 109 H -4.6491 6.811 0.2745 0
M  V30 110 H -3.6518 8.2742 0.4935 0
M  V30 111 H -5.385 8.394 0.5978 0
M  V30 112 H -6.0546 6.052 2.3259 0
M  V30 113 H -5.8628 6.985 3.8295 0
M  V30 114 H -6.5786 7.745 2.4353 0
M  V30 115 H 3.1978 -3.9585 1.1271 0
M  V30 116 H 1.4473 -5.5537 1.9581 0
M  V30 117 H 3.0276 -6.2527 1.6239 0
M  V30 118 H 2.037 -5.2166 -2.0933 0
M  V30 119 H 0.565 -6.3299 -0.1761 0
M  V30 120 H 1.8427 -7.6082 -1.7926 0
M  V30 121 H 4.8604 -6.3584 -2.3103 0
M  V30 122 H 4.2023 -4.9875 -3.1842 0
M  V30 123 H 3.5645 -6.6142 -3.506 0
M  V30 124 H 2.8099 -8.3555 1.9299 0
M  V30 125 H 3.9952 -9.6589 0.2082 0
M  V30 126 H 0.8731 -9.9281 2.4726 0
M  V30 127 H 2.4637 -10.7024 2.2521 0
M  V30 128 H 1.1549 -11.4075 -1.412 0
M  V30 129 H 3.522 -12.2197 -1.4974 0
M  V30 130 H 2.531 -13.153 -0.3496 0
M  V30 131 H 3.6822 -11.9486 0.2354 0
M  V30 END ATOM
M  V30 BEGIN BOND
M  V30 1 2 1 2
M  V30 2 1 2 3
M  V30 3 1 2 4
M  V30 4 2 3 5
M  V30 5 1 3 6
M  V30 6 2 4 7
M  V30 7 1 4 8
M  V30 8 1 5 9
M  V30 9 1 5 10
M  V30 10 1 6 11
M  V30 11 2 6 12
M  V30 12 1 7 13
M  V30 13 1 7 14
M  V30 14 2 8 15
M  V30 15 2 10 16
M  V30 16 1 10 17
M  V30 17 2 11 18
M  V30 18 1 12 19
M  V30 19 2 14 20
M  V30 20 1 16 21
M  V30 21 1 17 22
M  V30 22 1 17 23
M  V30 23 1 21 24
M  V30 24 1 21 25
M  V30 25 1 22 26
M  V30 26 1 24 27
M  V30 27 1 25 28
M  V30 28 1 25 29
M  V30 29 1 26 30
M  V30 30 1 26 31
M  V30 31 1 27 32
M  V30 32 1 27 33
M  V30 33 1 29 34
M  V30 34 1 30 35
M  V30 35 1 31 36
M  V30 36 1 32 37
M  V30 37 1 33 38
M  V30 38 1 35 39
M  V30 39 1 35 40
M  V30 40 1 36 41
M  V30 41 1 37 42
M  V30 42 1 37 43
M  V30 43 1 38 44
M  V30 44 1 39 45
M  V30 45 1 41 46
M  V30 46 1 41 47
M  V30 47 1 42 48
M  V30 48 1 44 49
M  V30 49 1 44 50
M  V30 50 1 45 51
M  V30 51 1 51 52
M  V30 52 1 51 53
M  V30 53 1 52 54
M  V30 54 1 53 55
M  V30 55 1 54 56
M  V30 56 1 54 57
M  V30 57 1 55 58
M  V30 58 1 56 59
M  V30 59 1 58 60
M  V30 60 1 59 61
M  V30 61 1 60 62
M  V30 62 1 61 63
M  V30 63 1 62 64
M  V30 64 1 63 65
M  V30 65 2 64 66
M  V30 66 1 65 67
M  V30 67 1 8 11
M  V30 68 1 12 16
M  V30 69 1 15 20
M  V30 70 1 23 25
M  V30 71 1 36 39
M  V30 72 1 38 42
M  V30 73 1 55 56
M  V30 74 1 60 61
M  V30 75 1 64 65
M  V30 76 1 9 68
M  V30 77 1 13 69
M  V30 78 1 14 70
M  V30 79 1 15 71
M  V30 80 1 17 72
M  V30 81 1 19 73
M  V30 82 1 20 74
M  V30 83 1 21 75
M  V30 84 1 23 76
M  V30 85 1 23 77
M  V30 86 1 26 78
M  V30 87 1 27 79
M  V30 88 1 28 80
M  V30 89 1 29 81
M  V30 90 1 29 82
M  V30 91 1 31 83
M  V30 92 1 31 84
M  V30 93 1 33 85
M  V30 94 1 33 86
M  V30 95 1 34 87
M  V30 96 1 34 88
M  V30 97 1 34 89
M  V30 98 1 35 90
M  V30 99 1 36 91
M  V30 100 1 37 92
M  V30 101 1 38 93
M  V30 102 1 39 94
M  V30 103 1 40 95
M  V30 104 1 40 96
M  V30 105 1 40 97
M  V30 106 1 42 98
M  V30 107 1 43 99
M  V30 108 1 43 100
M  V30 109 1 43 101
M  V30 110 1 46 102
M  V30 111 1 46 103
M  V30 112 1 46 104
M  V30 113 1 47 105
M  V30 114 1 47 106
M  V30 115 1 47 107
M  V30 116 1 48 108
M  V30 117 1 49 109
M  V30 118 1 49 110
M  V30 119 1 49 111
M  V30 120 1 50 112
M  V30 121 1 50 113
M  V30 122 1 50 114
M  V30 123 1 51 115
M  V30 124 1 53 116
M  V30 125 1 53 117
M  V30 126 1 54 118
M  V30 127 1 55 119
M  V30 128 1 56 120
M  V30 129 1 57 121
M  V30 130 1 57 122
M  V30 131 1 57 123
M  V30 132 1 60 124
M  V30 133 1 61 125
M  V30 134 1 62 126
M  V30 135 1 62 127
M  V30 136 1 65 128
M  V30 137 1 67 129
M  V30 138 1 67 130
M  V30 139 1 67 131
M  V30 END BOND
M  V30 BEGIN COLLECTION
M  V30 MDLV30/STEABS ATOMS=(18 17 21 25 26 27 35 36 37 38 39 42 51 54 55 56 60 61 65)
M  V30 END COLLECTION
M  V30 END CTAB
M  END
>  <level_0>
1667

>  <index>
1667

>  <NO.>
1668

>  <Name>
rodorubicin

>  <SMILES>
CC[C@@]1(O)C[C@H](O[C@H]2C[C@H](N(C)C)[C@H](O[C@H]3C[C@@H]4O[C@H]5CC(=O)[C@H](C)O[C@H]5O[C@@H]4[C@H](C)O3)[C@H](C)O2)c2c(O)c3c(c(O)c2[C@H]1O[C@H]1C[C@H](N(C)C)[C@H](O)[C@H](C)O1)C(=O)c1cccc(O)c1C3=O

>  <logBB>


>  <Class>
-1

>  <MW>
940.42

>  <nHBAcc>
19

>  <nHBDon>
5

>  <SLogP>
3.11

>  <TopoPSA>
241.91

>  <MMFF94 Energy>
264.11

$$$$
CC[C@H](NC(=O)c1c(Cn2ccnc2)c(-c2ccccc2)nc2ccccc12)c1ccccc1
Actelion Java MolfileCreator 2.0

  0  0  0  0  0  0              0 V3000
M  V30 BEGIN CTAB
M  V30 COUNTS 60 64 0 0 0
M  V30 BEGIN ATOM
M  V30 1 O -1.2768 1.9157 0.718 0
M  V30 2 C -0.8178 0.795 0.8781 0
M  V30 3 N -1.5358 -0.3084 1.27 0
M  V30 4 C 0.6076 0.5313 0.5893 0
M  V30 5 C -2.9551 -0.2344 1.5852 0 CFG=2
M  V30 6 C 1.4757 0.2106 1.6632 0
M  V30 7 C 1.0486 0.5825 -0.7476 0
M  V30 8 C -3.3866 -1.3944 2.469 0
M  V30 9 C -3.8395 -0.0616 0.3319 0
M  V30 10 C 2.7972 -0.1009 1.314 0
M  V30 11 C 1.1113 0.1945 3.0363 0
M  V30 12 C 2.3847 0.2429 -0.9602 0
M  V30 13 C 0.1346 0.9745 -1.8849 0
M  V30 14 C -3.066 -2.7294 2.1712 0
M  V30 15 C -4.1415 -1.1344 3.6253 0
M  V30 16 C -3.6853 -1.1348 -0.7385 0
M  V30 17 N 3.2281 -0.0976 0.0464 0
M  V30 18 C 3.7002 -0.4333 2.3155 0
M  V30 19 C 2.0345 -0.1406 4.025 0
M  V30 20 C 3.0181 0.1838 -2.2831 0
M  V30 21 N 0.4378 2.2899 -2.4292 0
M  V30 22 C -3.481 -3.7687 3.0073 0
M  V30 23 C -4.5553 -2.1743 4.4605 0
M  V30 24 C 3.3344 -0.4588 3.6626 0
M  V30 25 C 3.8682 1.215 -2.7127 0
M  V30 26 C 2.8096 -0.9107 -3.1384 0
M  V30 27 C 0.3254 3.486 -1.7778 0
M  V30 28 C 0.8142 2.5594 -3.7178 0
M  V30 29 C -4.2239 -3.4908 4.1518 0
M  V30 30 C 4.4683 1.1689 -3.9729 0
M  V30 31 C 3.4111 -0.9577 -4.3984 0
M  V30 32 N 0.6524 4.4915 -2.5601 0
M  V30 33 C 0.9577 3.9256 -3.7693 0
M  V30 34 C 4.2363 0.0844 -4.816 0
M  V30 35 H -1.0562 -1.189 1.4051 0
M  V30 36 H -3.0721 0.6866 2.1737 0
M  V30 37 H -3.6059 0.9034 -0.1349 0
M  V30 38 H -4.8944 -0.0111 0.6302 0
M  V30 39 H 0.1026 0.4591 3.3503 0
M  V30 40 H -0.9242 0.99 -1.6099 0
M  V30 41 H 0.2071 0.2423 -2.6974 0
M  V30 42 H -2.4965 -2.9791 1.2795 0
M  V30 43 H -4.4146 -0.1134 3.8868 0
M  V30 44 H -2.6421 -1.2516 -1.0469 0
M  V30 45 H -4.265 -0.8581 -1.6256 0
M  V30 46 H -4.0615 -2.1024 -0.3962 0
M  V30 47 H 4.7242 -0.6758 2.0376 0
M  V30 48 H 1.7395 -0.1449 5.0716 0
M  V30 49 H -3.2273 -4.7972 2.7629 0
M  V30 50 H -5.1381 -1.9554 5.3518 0
M  V30 51 H 4.069 -0.7188 4.4205 0
M  V30 52 H 4.0595 2.0678 -2.0629 0
M  V30 53 H 2.1848 -1.742 -2.8194 0
M  V30 54 H 0.0063 3.5732 -0.7465 0
M  V30 55 H 0.9633 1.7885 -4.4608 0
M  V30 56 H -4.5478 -4.3 4.8012 0
M  V30 57 H 5.1177 1.9802 -4.292 0
M  V30 58 H 3.2438 -1.8116 -5.0498 0
M  V30 59 H 1.2608 4.5312 -4.6132 0
M  V30 60 H 4.7079 0.0477 -5.7948 0
M  V30 END ATOM
M  V30 BEGIN BOND
M  V30 1 2 1 2
M  V30 2 1 2 3
M  V30 3 1 2 4
M  V30 4 1 3 5
M  V30 5 1 4 6
M  V30 6 2 4 7
M  V30 7 1 5 8
M  V30 8 1 5 9
M  V30 9 1 6 10
M  V30 10 2 6 11
M  V30 11 1 7 12
M  V30 12 1 7 13
M  V30 13 2 8 14
M  V30 14 1 8 15
M  V30 15 1 9 16
M  V30 16 1 10 17
M  V30 17 2 10 18
M  V30 18 1 11 19
M  V30 19 1 12 20
M  V30 20 1 13 21
M  V30 21 1 14 22
M  V30 22 2 15 23
M  V30 23 1 18 24
M  V30 24 2 20 25
M  V30 25 1 20 26
M  V30 26 1 21 27
M  V30 27 1 21 28
M  V30 28 2 22 29
M  V30 29 1 25 30
M  V30 30 2 26 31
M  V30 31 2 27 32
M  V30 32 2 28 33
M  V30 33 2 30 34
M  V30 34 2 12 17
M  V30 35 2 19 24
M  V30 36 1 23 29
M  V30 37 1 31 34
M  V30 38 1 32 33
M  V30 39 1 3 35
M  V30 40 1 5 36
M  V30 41 1 9 37
M  V30 42 1 9 38
M  V30 43 1 11 39
M  V30 44 1 13 40
M  V30 45 1 13 41
M  V30 46 1 14 42
M  V30 47 1 15 43
M  V30 48 1 16 44
M  V30 49 1 16 45
M  V30 50 1 16 46
M  V30 51 1 18 47
M  V30 52 1 19 48
M  V30 53 1 22 49
M  V30 54 1 23 50
M  V30 55 1 24 51
M  V30 56 1 25 52
M  V30 57 1 26 53
M  V30 58 1 27 54
M  V30 59 1 28 55
M  V30 60 1 29 56
M  V30 61 1 30 57
M  V30 62 1 31 58
M  V30 63 1 33 59
M  V30 64 1 34 60
M  V30 END BOND
M  V30 BEGIN COLLECTION
M  V30 MDLV30/STEABS ATOMS=(1 5)
M  V30 END COLLECTION
M  V30 END CTAB
M  END
>  <level_0>
1669

>  <index>
1669

>  <NO.>
1670

>  <Name>
skb-i

>  <SMILES>
CC[C@H](NC(=O)c1c(Cn2ccnc2)c(-c2ccccc2)nc2ccccc12)c1ccccc1

>  <logBB>


>  <Class>
-1

>  <MW>
446.21

>  <nHBAcc>
3

>  <nHBDon>
1

>  <SLogP>
6.03

>  <TopoPSA>
59.81

>  <MMFF94 Energy>
50.086

$$$$
CC[C@H](NC(=O)c1c(O)c(-c2ccccc2)nc2ccccc12)c1ccccc1
Actelion Java MolfileCreator 2.0

  0  0  0  0  0  0              0 V3000
M  V30 BEGIN CTAB
M  V30 COUNTS 51 54 0 0 0
M  V30 BEGIN ATOM
M  V30 1 O 1.1959 -2.5526 0.6376 0
M  V30 2 C 0.6487 -1.5086 0.301 0
M  V30 3 N -0.5562 -1.0933 0.8168 0
M  V30 4 C 1.2664 -0.6151 -0.7242 0
M  V30 5 C -1.2904 -1.8547 1.8139 0 CFG=2
M  V30 6 C 1.2945 0.772 -0.5195 0
M  V30 7 C 1.8422 -1.177 -1.8981 0
M  V30 8 C -2.7617 -1.4793 1.7317 0
M  V30 9 C -0.6765 -1.6579 3.2157 0
M  V30 10 O 0.6863 1.3145 0.5861 0
M  V30 11 C 1.9327 1.5661 -1.4716 0
M  V30 12 C 2.4361 -0.2734 -2.8022 0
M  V30 13 C 1.8441 -2.5566 -2.2412 0
M  V30 14 C -3.2302 -0.2244 2.1555 0
M  V30 15 C -3.6825 -2.3887 1.1877 0
M  V30 16 C -1.3117 -2.5504 4.2744 0
M  V30 17 N 2.4779 1.0501 -2.5968 0
M  V30 18 C 2.0765 3.0244 -1.3493 0
M  V30 19 C 3.0085 -0.7553 -3.9719 0
M  V30 20 C 2.4248 -3.018 -3.4223 0
M  V30 21 C -4.5842 0.1022 2.0552 0
M  V30 22 C -5.0359 -2.0601 1.0878 0
M  V30 23 C 2.8057 3.5984 -0.2928 0
M  V30 24 C 1.4905 3.8819 -2.2944 0
M  V30 25 C 3.0116 -2.1132 -4.291 0
M  V30 26 C -5.4864 -0.8161 1.5235 0
M  V30 27 C 2.9219 4.9853 -0.172 0
M  V30 28 C 1.6061 5.2687 -2.174 0
M  V30 29 C 2.318 5.8192 -1.1104 0
M  V30 30 H -0.8998 -0.176 0.5606 0
M  V30 31 H -1.1776 -2.9155 1.5526 0
M  V30 32 H -0.7451 -0.6107 3.5338 0
M  V30 33 H 0.3956 -1.888 3.179 0
M  V30 34 H 0.7394 2.2869 0.5474 0
M  V30 35 H 1.388 -3.2951 -1.5842 0
M  V30 36 H -2.5427 0.5109 2.5668 0
M  V30 37 H -3.3488 -3.3628 0.8357 0
M  V30 38 H -2.366 -2.3032 4.4309 0
M  V30 39 H -0.7948 -2.4235 5.2312 0
M  V30 40 H -1.2421 -3.6052 3.9904 0
M  V30 41 H 3.4687 -0.0487 -4.6597 0
M  V30 42 H 2.4166 -4.0798 -3.6547 0
M  V30 43 H -4.9347 1.0745 2.3916 0
M  V30 44 H -5.7378 -2.7759 0.6677 0
M  V30 45 H 3.3044 2.9625 0.4374 0
M  V30 46 H 0.9428 3.4646 -3.1381 0
M  V30 47 H 3.4706 -2.455 -5.2146 0
M  V30 48 H -6.5401 -0.5616 1.4456 0
M  V30 49 H 3.494 5.414 0.6471 0
M  V30 50 H 1.1479 5.9173 -2.9164 0
M  V30 51 H 2.4143 6.8985 -1.0216 0
M  V30 END ATOM
M  V30 BEGIN BOND
M  V30 1 2 1 2
M  V30 2 1 2 3
M  V30 3 1 2 4
M  V30 4 1 3 5
M  V30 5 2 4 6
M  V30 6 1 4 7
M  V30 7 1 5 8
M  V30 8 1 5 9
M  V30 9 1 6 10
M  V30 10 1 6 11
M  V30 11 1 7 12
M  V30 12 2 7 13
M  V30 13 2 8 14
M  V30 14 1 8 15
M  V30 15 1 9 16
M  V30 16 2 11 17
M  V30 17 1 11 18
M  V30 18 2 12 19
M  V30 19 1 13 20
M  V30 20 1 14 21
M  V30 21 2 15 22
M  V30 22 2 18 23
M  V30 23 1 18 24
M  V30 24 1 19 25
M  V30 25 2 21 26
M  V30 26 1 23 27
M  V30 27 2 24 28
M  V30 28 2 27 29
M  V30 29 1 12 17
M  V30 30 2 20 25
M  V30 31 1 22 26
M  V30 32 1 28 29
M  V30 33 1 3 30
M  V30 34 1 5 31
M  V30 35 1 9 32
M  V30 36 1 9 33
M  V30 37 1 10 34
M  V30 38 1 13 35
M  V30 39 1 14 36
M  V30 40 1 15 37
M  V30 41 1 16 38
M  V30 42 1 16 39
M  V30 43 1 16 40
M  V30 44 1 19 41
M  V30 45 1 20 42
M  V30 46 1 21 43
M  V30 47 1 22 44
M  V30 48 1 23 45
M  V30 49 1 24 46
M  V30 50 1 25 47
M  V30 51 1 26 48
M  V30 52 1 27 49
M  V30 53 1 28 50
M  V30 54 1 29 51
M  V30 END BOND
M  V30 BEGIN COLLECTION
M  V30 MDLV30/STEABS ATOMS=(1 5)
M  V30 END COLLECTION
M  V30 END CTAB
M  END
>  <level_0>
1670

>  <index>
1670

>  <NO.>
1671

>  <Name>
talnetant

>  <SMILES>
CC[C@H](NC(=O)c1c(O)c(-c2ccccc2)nc2ccccc12)c1ccccc1

>  <logBB>


>  <Class>
1

>  <MW>
382.17

>  <nHBAcc>
3

>  <nHBDon>
2

>  <SLogP>
5.49

>  <TopoPSA>
62.22

>  <MMFF94 Energy>
75.95

$$$$
CC[C@H](NC(=O)c1c(OCCCC(=O)O)c(-c2ccccc2)nc2ccccc12)c1ccccc1
Actelion Java MolfileCreator 2.0

  0  0  0  0  0  0              0 V3000
M  V30 BEGIN CTAB
M  V30 COUNTS 63 66 0 0 0
M  V30 BEGIN ATOM
M  V30 1 O -2.3876 0.8749 -1.3524 0
M  V30 2 C -1.5402 0.9902 -0.477 0
M  V30 3 N -1.7098 0.6315 0.839 0
M  V30 4 C -0.2242 1.5773 -0.7968 0
M  V30 5 C -2.9557 0.0652 1.331 0 CFG=2
M  V30 6 C 0.9066 0.7567 -0.7692 0
M  V30 7 C -0.1294 2.9442 -1.1383 0
M  V30 8 C -3.1501 0.3396 2.8144 0
M  V30 9 C -3.1168 -1.4224 0.9553 0
M  V30 10 O 0.7915 -0.5753 -0.4646 0
M  V30 11 C 2.1461 1.3375 -1.0309 0
M  V30 12 C 1.1613 3.4263 -1.4165 0
M  V30 13 C -1.2268 3.8403 -1.2083 0
M  V30 14 C -2.1439 0.0986 3.7648 0
M  V30 15 C -4.3822 0.8428 3.2654 0
M  V30 16 C -2.0633 -2.3632 1.5256 0
M  V30 17 C 0.6035 -1.3485 -1.661 0
M  V30 18 N 2.2568 2.6514 -1.3639 0
M  V30 19 C 3.4312 0.606 -0.9995 0
M  V30 20 C 1.3186 4.7641 -1.7538 0
M  V30 21 C -1.0429 5.1786 -1.5495 0
M  V30 22 C -2.3615 0.3593 5.1198 0
M  V30 23 C -4.5983 1.1037 4.6203 0
M  V30 24 C 0.8654 -2.8102 -1.3189 0
M  V30 25 C 4.402 0.8297 -1.9937 0
M  V30 26 C 3.7431 -0.3203 0.0116 0
M  V30 27 C 0.235 5.6426 -1.8233 0
M  V30 28 C -3.5874 0.8628 5.5468 0
M  V30 29 C 0.6839 -3.7114 -2.5341 0
M  V30 30 C 5.6198 0.1436 -1.9913 0
M  V30 31 C 4.9596 -1.0099 0.016 0
M  V30 32 C 0.9387 -5.1539 -2.1943 0
M  V30 33 C 5.896 -0.7792 -0.9873 0
M  V30 34 O 1.2334 -5.6211 -1.1083 0
M  V30 35 O 0.8018 -5.9528 -3.2707 0
M  V30 36 H -0.943 0.7616 1.4845 0
M  V30 37 H -3.7502 0.6029 0.7946 0
M  V30 38 H -3.0901 -1.516 -0.1376 0
M  V30 39 H -4.1062 -1.7749 1.2727 0
M  V30 40 H -2.2396 3.495 -1.0047 0
M  V30 41 H -1.1808 -0.3061 3.4639 0
M  V30 42 H -5.1875 1.0382 2.5597 0
M  V30 43 H -1.05 -2.0086 1.3195 0
M  V30 44 H -2.1699 -3.3562 1.0765 0
M  V30 45 H -2.1779 -2.484 2.6064 0
M  V30 46 H 1.2908 -1.0283 -2.4545 0
M  V30 47 H -0.4271 -1.2263 -2.0141 0
M  V30 48 H 2.3184 5.1364 -1.9677 0
M  V30 49 H -1.8954 5.851 -1.6031 0
M  V30 50 H -1.5735 0.1653 5.8432 0
M  V30 51 H -5.557 1.4948 4.9513 0
M  V30 52 H 1.8803 -2.9152 -0.9145 0
M  V30 53 H 0.1958 -3.1243 -0.509 0
M  V30 54 H 4.2072 1.5522 -2.7851 0
M  V30 55 H 3.0384 -0.5121 0.8184 0
M  V30 56 H 0.3956 6.6836 -2.0914 0
M  V30 57 H -3.756 1.0648 6.6012 0
M  V30 58 H -0.3403 -3.6247 -2.9129 0
M  V30 59 H 1.384 -3.4162 -3.3234 0
M  V30 60 H 6.3507 0.3358 -2.7722 0
M  V30 61 H 5.1747 -1.7232 0.8076 0
M  V30 62 H 6.843 -1.3122 -0.9823 0
M  V30 63 H 0.9873 -6.8515 -2.9258 0
M  V30 END ATOM
M  V30 BEGIN BOND
M  V30 1 2 1 2
M  V30 2 1 2 3
M  V30 3 1 2 4
M  V30 4 1 3 5
M  V30 5 2 4 6
M  V30 6 1 4 7
M  V30 7 1 5 8
M  V30 8 1 5 9
M  V30 9 1 6 10
M  V30 10 1 6 11
M  V30 11 1 7 12
M  V30 12 2 7 13
M  V30 13 2 8 14
M  V30 14 1 8 15
M  V30 15 1 9 16
M  V30 16 1 10 17
M  V30 17 2 11 18
M  V30 18 1 11 19
M  V30 19 2 12 20
M  V30 20 1 13 21
M  V30 21 1 14 22
M  V30 22 2 15 23
M  V30 23 1 17 24
M  V30 24 2 19 25
M  V30 25 1 19 26
M  V30 26 1 20 27
M  V30 27 2 22 28
M  V30 28 1 24 29
M  V30 29 1 25 30
M  V30 30 2 26 31
M  V30 31 1 29 32
M  V30 32 2 30 33
M  V30 33 2 32 34
M  V30 34 1 32 35
M  V30 35 1 12 18
M  V30 36 2 21 27
M  V30 37 1 23 28
M  V30 38 1 31 33
M  V30 39 1 3 36
M  V30 40 1 5 37
M  V30 41 1 9 38
M  V30 42 1 9 39
M  V30 43 1 13 40
M  V30 44 1 14 41
M  V30 45 1 15 42
M  V30 46 1 16 43
M  V30 47 1 16 44
M  V30 48 1 16 45
M  V30 49 1 17 46
M  V30 50 1 17 47
M  V30 51 1 20 48
M  V30 52 1 21 49
M  V30 53 1 22 50
M  V30 54 1 23 51
M  V30 55 1 24 52
M  V30 56 1 24 53
M  V30 57 1 25 54
M  V30 58 1 26 55
M  V30 59 1 27 56
M  V30 60 1 28 57
M  V30 61 1 29 58
M  V30 62 1 29 59
M  V30 63 1 30 60
M  V30 64 1 31 61
M  V30 65 1 33 62
M  V30 66 1 35 63
M  V30 END BOND
M  V30 BEGIN COLLECTION
M  V30 MDLV30/STEABS ATOMS=(1 5)
M  V30 END COLLECTION
M  V30 END CTAB
M  END
>  <level_0>
1672

>  <index>
1672

>  <NO.>
1673

>  <Name>
skb-e

>  <SMILES>
CC[C@H](NC(=O)c1c(OCCCC(=O)O)c(-c2ccccc2)nc2ccccc12)c1ccccc1

>  <logBB>


>  <Class>
-1

>  <MW>
468.2

>  <nHBAcc>
4

>  <nHBDon>
2

>  <SLogP>
6.03

>  <TopoPSA>
88.52

>  <MMFF94 Energy>
50.297

$$$$
CC[C@H](NC(=O)c1c(OCCCN(C)C)c(-c2ccccc2)nc2ccccc12)c1ccccc1
Actelion Java MolfileCreator 2.0

  0  0  0  0  0  0              0 V3000
M  V30 BEGIN CTAB
M  V30 COUNTS 68 71 0 0 0
M  V30 BEGIN ATOM
M  V30 1 O -0.7918 1.9011 2.3768 0
M  V30 2 C -0.6904 1.866 1.1567 0
M  V30 3 N -1.736 1.5952 0.3024 0
M  V30 4 C 0.615 2.1578 0.5067 0
M  V30 5 C -3.0841 1.3224 0.7802 0 CFG=2
M  V30 6 C 1.1257 1.2795 -0.4575 0
M  V30 7 C 1.34 3.322 0.8755 0
M  V30 8 C -3.3616 -0.1644 0.9249 0
M  V30 9 C -4.1438 2.0571 -0.0642 0
M  V30 10 O 0.4514 0.14 -0.8161 0
M  V30 11 C 2.3354 1.5995 -1.0724 0
M  V30 12 C 2.5684 3.5287 0.2198 0
M  V30 13 C 0.9192 4.2885 1.8286 0
M  V30 14 C -2.9079 -1.1083 -0.0084 0
M  V30 15 C -4.1093 -0.6219 2.0233 0
M  V30 16 C -4.2275 1.6431 -1.5286 0
M  V30 17 C 0.7701 -0.9468 0.0765 0
M  V30 18 N 3.0483 2.6975 -0.7158 0
M  V30 19 C 2.9624 0.7901 -2.1362 0
M  V30 20 C 3.3273 4.6481 0.5348 0
M  V30 21 C 1.6976 5.4059 2.1281 0
M  V30 22 C -3.1754 -2.4683 0.1621 0
M  V30 23 C -4.3813 -1.9813 2.1901 0
M  V30 24 C 0.8513 -2.2256 -0.7487 0
M  V30 25 C 2.2369 0.3364 -3.252 0
M  V30 26 C 4.3291 0.4639 -2.0712 0
M  V30 27 C 2.9085 5.5856 1.4796 0
M  V30 28 C -3.9111 -2.9045 1.2607 0
M  V30 29 C 1.2195 -3.477 0.0526 0
M  V30 30 C 2.8463 -0.4308 -4.2493 0
M  V30 31 C 4.9409 -0.3027 -3.0666 0
M  V30 32 N 0.136 -3.8836 0.9582 0
M  V30 33 C 4.1974 -0.7524 -4.1539 0
M  V30 34 C 0.4175 -3.5135 2.3481 0
M  V30 35 C -0.1073 -5.3251 0.8797 0
M  V30 36 H -1.5356 1.4688 -0.6804 0
M  V30 37 H -3.1453 1.758 1.7868 0
M  V30 38 H -3.933 3.1339 -0.0298 0
M  V30 39 H -5.1328 1.9174 0.3902 0
M  V30 40 H -0.0262 4.1753 2.3566 0
M  V30 41 H -2.3269 -0.7979 -0.8724 0
M  V30 42 H -4.4752 0.082 2.7682 0
M  V30 43 H -3.2697 1.7686 -2.0413 0
M  V30 44 H -4.964 2.2663 -2.0471 0
M  V30 45 H -4.5487 0.6034 -1.6357 0
M  V30 46 H -0.0314 -1.01 0.8174 0
M  V30 47 H 1.721 -0.7861 0.6019 0
M  V30 48 H 4.2759 4.7986 0.0234 0
M  V30 49 H 1.3557 6.1267 2.8665 0
M  V30 50 H -2.7928 -3.1894 -0.5553 0
M  V30 51 H -4.9517 -2.3188 3.0512 0
M  V30 52 H -0.0944 -2.3806 -1.2836 0
M  V30 53 H 1.6031 -2.0876 -1.5353 0
M  V30 54 H 1.1823 0.5834 -3.3566 0
M  V30 55 H 4.928 0.8159 -1.2325 0
M  V30 56 H 3.5284 6.4502 1.7011 0
M  V30 57 H -4.1085 -3.9641 1.3955 0
M  V30 58 H 1.4151 -4.2672 -0.6849 0
M  V30 59 H 2.1684 -3.3304 0.5843 0
M  V30 60 H 2.2647 -0.7715 -5.1019 0
M  V30 61 H 5.9987 -0.5409 -2.9927 0
M  V30 62 H 4.6726 -1.3454 -4.9307 0
M  V30 63 H 0.5919 -2.4388 2.4517 0
M  V30 64 H 1.2954 -4.038 2.7429 0
M  V30 65 H -0.4406 -3.7511 2.987 0
M  V30 66 H 0.7752 -5.9094 1.1642 0
M  V30 67 H -0.3999 -5.6097 -0.1372 0
M  V30 68 H -0.9391 -5.6129 1.5327 0
M  V30 END ATOM
M  V30 BEGIN BOND
M  V30 1 2 1 2
M  V30 2 1 2 3
M  V30 3 1 2 4
M  V30 4 1 3 5
M  V30 5 2 4 6
M  V30 6 1 4 7
M  V30 7 1 5 8
M  V30 8 1 5 9
M  V30 9 1 6 10
M  V30 10 1 6 11
M  V30 11 1 7 12
M  V30 12 2 7 13
M  V30 13 2 8 14
M  V30 14 1 8 15
M  V30 15 1 9 16
M  V30 16 1 10 17
M  V30 17 2 11 18
M  V30 18 1 11 19
M  V30 19 2 12 20
M  V30 20 1 13 21
M  V30 21 1 14 22
M  V30 22 2 15 23
M  V30 23 1 17 24
M  V30 24 2 19 25
M  V30 25 1 19 26
M  V30 26 1 20 27
M  V30 27 2 22 28
M  V30 28 1 24 29
M  V30 29 1 25 30
M  V30 30 2 26 31
M  V30 31 1 29 32
M  V30 32 2 30 33
M  V30 33 1 32 34
M  V30 34 1 32 35
M  V30 35 1 12 18
M  V30 36 2 21 27
M  V30 37 1 23 28
M  V30 38 1 31 33
M  V30 39 1 3 36
M  V30 40 1 5 37
M  V30 41 1 9 38
M  V30 42 1 9 39
M  V30 43 1 13 40
M  V30 44 1 14 41
M  V30 45 1 15 42
M  V30 46 1 16 43
M  V30 47 1 16 44
M  V30 48 1 16 45
M  V30 49 1 17 46
M  V30 50 1 17 47
M  V30 51 1 20 48
M  V30 52 1 21 49
M  V30 53 1 22 50
M  V30 54 1 23 51
M  V30 55 1 24 52
M  V30 56 1 24 53
M  V30 57 1 25 54
M  V30 58 1 26 55
M  V30 59 1 27 56
M  V30 60 1 28 57
M  V30 61 1 29 58
M  V30 62 1 29 59
M  V30 63 1 30 60
M  V30 64 1 31 61
M  V30 65 1 33 62
M  V30 66 1 34 63
M  V30 67 1 34 64
M  V30 68 1 34 65
M  V30 69 1 35 66
M  V30 70 1 35 67
M  V30 71 1 35 68
M  V30 END BOND
M  V30 BEGIN COLLECTION
M  V30 MDLV30/STEABS ATOMS=(1 5)
M  V30 END COLLECTION
M  V30 END CTAB
M  END
>  <level_0>
1673

>  <index>
1673

>  <NO.>
1674

>  <Name>
chembl2113676

>  <SMILES>
CC[C@H](NC(=O)c1c(OCCCN(C)C)c(-c2ccccc2)nc2ccccc12)c1ccccc1

>  <logBB>


>  <Class>
1

>  <MW>
467.26

>  <nHBAcc>
4

>  <nHBDon>
1

>  <SLogP>
6.11

>  <TopoPSA>
54.46

>  <MMFF94 Energy>
90.084

$$$$
CC[C@H](NC(=O)c1c(OCCNC(=O)Cc2ccccc2C(=O)O)c(-c2ccccc2)nc2ccccc12)c1ccccc1
Actelion Java MolfileCreator 2.0

  0  0  0  0  0  0              0 V3000
M  V30 BEGIN CTAB
M  V30 COUNTS 77 81 0 0 0
M  V30 BEGIN ATOM
M  V30 1 O -1.6747 -2.7925 -3.2718 0
M  V30 2 C -2.6538 -3.5126 -3.211 0
M  V30 3 O -3.456 -3.6878 -4.2772 0
M  V30 4 C -3.13 -4.2715 -2.0241 0
M  V30 5 C -2.9119 -3.8116 -0.7089 0
M  V30 6 C -3.7863 -5.4972 -2.2352 0
M  V30 7 C -3.3402 -4.616 0.3651 0
M  V30 8 C -2.2385 -2.4976 -0.3805 0
M  V30 9 C -4.2147 -6.271 -1.1566 0
M  V30 10 C -3.9866 -5.8322 0.1429 0
M  V30 11 C -0.7641 -2.66 -0.0594 0
M  V30 12 O -0.357 -2.8804 1.0793 0
M  V30 13 N 0.0676 -2.5441 -1.1434 0
M  V30 14 C 1.5117 -2.529 -1.0292 0
M  V30 15 C 2.0301 -1.1603 -0.5796 0
M  V30 16 O 1.6038 -0.1913 -1.5506 0
M  V30 17 C 1.9639 1.082 -1.2065 0
M  V30 18 C 3.1488 1.6408 -1.6819 0
M  V30 19 C 1.1201 1.8883 -0.4351 0
M  V30 20 N 3.5162 2.9113 -1.3636 0
M  V30 21 C 4.1176 0.925 -2.5394 0
M  V30 22 C 1.4467 3.2383 -0.1654 0
M  V30 23 C -0.1039 1.29 0.1473 0
M  V30 24 C 2.6866 3.6885 -0.6513 0
M  V30 25 C 3.7115 0.1532 -3.6428 0
M  V30 26 C 5.4982 1.0107 -2.2806 0
M  V30 27 C 0.6153 4.1516 0.5333 0
M  V30 28 O -1.0276 0.9241 -0.5653 0
M  V30 29 N -0.0723 1.1832 1.5233 0
M  V30 30 C 3.0744 4.9965 -0.3922 0
M  V30 31 C 4.6417 -0.5226 -4.4383 0
M  V30 32 C 6.4308 0.3368 -3.0744 0
M  V30 33 C 1.0237 5.4613 0.7761 0
M  V30 34 C -1.1858 0.6506 2.2944 0 CFG=2
M  V30 35 C 2.2623 5.8833 0.3178 0
M  V30 36 C 6.0008 -0.4328 -4.1513 0
M  V30 37 C -2.0933 1.7587 2.8064 0
M  V30 38 C -0.7097 -0.3106 3.4019 0
M  V30 39 C -1.5896 2.9217 3.4122 0
M  V30 40 C -3.4858 1.6221 2.6854 0
M  V30 41 C 0.1459 0.2992 4.5057 0
M  V30 42 C -2.4511 3.9171 3.879 0
M  V30 43 C -4.3465 2.6182 3.1513 0
M  V30 44 C -3.829 3.765 3.7481 0
M  V30 45 H -3.0624 -3.1191 -4.9716 0
M  V30 46 H -3.959 -5.8632 -3.2451 0
M  V30 47 H -3.1649 -4.2936 1.3914 0
M  V30 48 H -2.3823 -1.7562 -1.1728 0
M  V30 49 H -2.7219 -2.0526 0.4994 0
M  V30 50 H -4.7177 -7.2186 -1.3318 0
M  V30 51 H -4.3094 -6.4365 0.9872 0
M  V30 52 H -0.3522 -2.3671 -2.0581 0
M  V30 53 H 1.9038 -2.775 -2.0214 0
M  V30 54 H 1.8246 -3.3031 -0.3212 0
M  V30 55 H 1.6357 -0.9143 0.4126 0
M  V30 56 H 3.1249 -1.1855 -0.5307 0
M  V30 57 H 2.6563 0.0794 -3.9014 0
M  V30 58 H 5.8544 1.6148 -1.4475 0
M  V30 59 H -0.3753 3.8528 0.8729 0
M  V30 60 H 0.7305 1.5338 2.0258 0
M  V30 61 H 4.0366 5.3409 -0.7663 0
M  V30 62 H 4.3014 -1.1123 -5.2855 0
M  V30 63 H 7.4913 0.42 -2.8522 0
M  V30 64 H 0.3706 6.1477 1.3093 0
M  V30 65 H -1.7769 0.0424 1.5977 0
M  V30 66 H 2.5953 6.903 0.4936 0
M  V30 67 H 6.7245 -0.9542 -4.7718 0
M  V30 68 H -0.1228 -1.1119 2.939 0
M  V30 69 H -1.5819 -0.7875 3.8667 0
M  V30 70 H -0.5185 3.0638 3.5287 0
M  V30 71 H -3.9112 0.7368 2.2168 0
M  V30 72 H 1.0236 0.8127 4.1036 0
M  V30 73 H 0.5028 -0.4912 5.1746 0
M  V30 74 H -0.4255 1.0035 5.1163 0
M  V30 75 H -2.0462 4.8109 4.3463 0
M  V30 76 H -5.4216 2.4983 3.0449 0
M  V30 77 H -4.4999 4.5396 4.11 0
M  V30 END ATOM
M  V30 BEGIN BOND
M  V30 1 2 1 2
M  V30 2 1 2 3
M  V30 3 1 2 4
M  V30 4 2 4 5
M  V30 5 1 4 6
M  V30 6 1 5 7
M  V30 7 1 5 8
M  V30 8 2 6 9
M  V30 9 2 7 10
M  V30 10 1 8 11
M  V30 11 2 11 12
M  V30 12 1 11 13
M  V30 13 1 13 14
M  V30 14 1 14 15
M  V30 15 1 15 16
M  V30 16 1 16 17
M  V30 17 1 17 18
M  V30 18 2 17 19
M  V30 19 2 18 20
M  V30 20 1 18 21
M  V30 21 1 19 22
M  V30 22 1 19 23
M  V30 23 1 20 24
M  V30 24 2 21 25
M  V30 25 1 21 26
M  V30 26 2 22 27
M  V30 27 2 23 28
M  V30 28 1 23 29
M  V30 29 2 24 30
M  V30 30 1 25 31
M  V30 31 2 26 32
M  V30 32 1 27 33
M  V30 33 1 29 34
M  V30 34 1 30 35
M  V30 35 2 31 36
M  V30 36 1 34 37
M  V30 37 1 34 38
M  V30 38 2 37 39
M  V30 39 1 37 40
M  V30 40 1 38 41
M  V30 41 1 39 42
M  V30 42 2 40 43
M  V30 43 2 42 44
M  V30 44 1 9 10
M  V30 45 1 22 24
M  V30 46 1 32 36
M  V30 47 2 33 35
M  V30 48 1 43 44
M  V30 49 1 3 45
M  V30 50 1 6 46
M  V30 51 1 7 47
M  V30 52 1 8 48
M  V30 53 1 8 49
M  V30 54 1 9 50
M  V30 55 1 10 51
M  V30 56 1 13 52
M  V30 57 1 14 53
M  V30 58 1 14 54
M  V30 59 1 15 55
M  V30 60 1 15 56
M  V30 61 1 25 57
M  V30 62 1 26 58
M  V30 63 1 27 59
M  V30 64 1 29 60
M  V30 65 1 30 61
M  V30 66 1 31 62
M  V30 67 1 32 63
M  V30 68 1 33 64
M  V30 69 1 34 65
M  V30 70 1 35 66
M  V30 71 1 36 67
M  V30 72 1 38 68
M  V30 73 1 38 69
M  V30 74 1 39 70
M  V30 75 1 40 71
M  V30 76 1 41 72
M  V30 77 1 41 73
M  V30 78 1 41 74
M  V30 79 1 42 75
M  V30 80 1 43 76
M  V30 81 1 44 77
M  V30 END BOND
M  V30 BEGIN COLLECTION
M  V30 MDLV30/STEABS ATOMS=(1 34)
M  V30 END COLLECTION
M  V30 END CTAB
M  END
>  <level_0>
1674

>  <index>
1674

>  <NO.>
1675

>  <Name>
skb-f

>  <SMILES>
CC[C@H](NC(=O)c1c(OCCNC(=O)Cc2ccccc2C(=O)O)c(-c2ccccc2)nc2ccccc12)c1ccccc1

>  <logBB>


>  <Class>
-1

>  <MW>
587.24

>  <nHBAcc>
5

>  <nHBDon>
3

>  <SLogP>
6.22

>  <TopoPSA>
117.62

>  <MMFF94 Energy>
97.058

$$$$
CC[C@H](NC(=O)c1c(OCCNC(=O)Cc2ccccn2)c(-c2ccccc2)nc2ccccc12)c1ccccc1
Actelion Java MolfileCreator 2.0

  0  0  0  0  0  0              0 V3000
M  V30 BEGIN CTAB
M  V30 COUNTS 73 77 0 0 0
M  V30 BEGIN ATOM
M  V30 1 O -1.275 2.6312 3.19 0
M  V30 2 C -1.0275 2.332 2.0286 0
M  V30 3 N -1.8982 1.6268 1.2295 0
M  V30 4 C 0.2746 2.7009 1.4004 0
M  V30 5 C -3.1796 1.1355 1.7084 0 CFG=2
M  V30 6 C 0.9629 1.7513 0.6273 0
M  V30 7 C 0.8192 3.998 1.5938 0
M  V30 8 C -3.6005 -0.1199 0.9594 0
M  V30 9 C -4.2612 2.2335 1.7397 0
M  V30 10 O 0.4504 0.4931 0.4281 0
M  V30 11 C 2.1561 2.1272 0.0134 0
M  V30 12 C 2.0544 4.2563 0.9686 0
M  V30 13 C 0.217 5.0465 2.341 0
M  V30 14 C -3.583 -0.2027 -0.4427 0
M  V30 15 C -4.015 -1.2485 1.6864 0
M  V30 16 C -4.5492 2.9149 0.408 0
M  V30 17 C 0.8429 -0.3939 1.4958 0
M  V30 18 N 2.6961 3.3563 0.2101 0
M  V30 19 C 2.9359 1.2588 -0.8938 0
M  V30 20 C 2.6456 5.5035 1.1192 0
M  V30 21 C 0.8289 6.2922 2.477 0
M  V30 22 C -3.9583 -1.3792 -1.0951 0
M  V30 23 C -4.3896 -2.4243 1.033 0
M  V30 24 C 0.2981 -1.7875 1.1797 0
M  V30 25 C 2.3264 0.5008 -1.91 0
M  V30 26 C 4.3367 1.1879 -0.7837 0
M  V30 27 C 2.0505 6.521 1.8657 0
M  V30 28 C -4.3594 -2.4897 -0.3572 0
M  V30 29 N 1.0376 -2.4232 0.1061 0
M  V30 30 C 3.0814 -0.3049 -2.7672 0
M  V30 31 C 5.0945 0.3834 -1.6394 0
M  V30 32 C 2.1269 -3.2318 0.3352 0
M  V30 33 C 4.4653 -0.3635 -2.6305 0
M  V30 34 O 2.5568 -3.4705 1.462 0
M  V30 35 C 2.8063 -3.76 -0.9098 0
M  V30 36 C 1.841 -4.4108 -1.8642 0
M  V30 37 N 1.2526 -3.6058 -2.7887 0
M  V30 38 C 1.542 -5.7663 -1.7532 0
M  V30 39 C 0.3671 -4.1793 -3.6337 0
M  V30 40 C 0.6216 -6.3244 -2.6354 0
M  V30 41 C 0.0229 -5.5193 -3.5966 0
M  V30 42 H -1.5868 1.3515 0.3067 0
M  V30 43 H -3.0103 0.8444 2.7545 0
M  V30 44 H -3.9501 3.0122 2.4478 0
M  V30 45 H -5.1977 1.8158 2.1302 0
M  V30 46 H -0.7428 4.9015 2.8337 0
M  V30 47 H -3.2798 0.6499 -1.0453 0
M  V30 48 H -4.0446 -1.2218 2.7743 0
M  V30 49 H -3.6386 3.318 -0.0448 0
M  V30 50 H -5.242 3.7492 0.5614 0
M  V30 51 H -5.0212 2.2297 -0.3009 0
M  V30 52 H 0.4041 -0.05 2.4394 0
M  V30 53 H 1.9353 -0.4184 1.5939 0
M  V30 54 H 3.601 5.6923 0.6337 0
M  V30 55 H 0.3497 7.0744 3.0605 0
M  V30 56 H -3.9396 -1.4273 -2.1808 0
M  V30 57 H -4.7045 -3.2893 1.6112 0
M  V30 58 H 0.3532 -2.4197 2.0719 0
M  V30 59 H -0.7441 -1.7305 0.8515 0
M  V30 60 H 1.2487 0.538 -2.0527 0
M  V30 61 H 4.8478 1.7724 -0.02 0
M  V30 62 H 2.5423 7.4852 1.9618 0
M  V30 63 H -4.6514 -3.4051 -0.865 0
M  V30 64 H 0.7545 -2.2569 -0.8571 0
M  V30 65 H 2.5856 -0.8902 -3.5383 0
M  V30 66 H 6.1752 0.3468 -1.5311 0
M  V30 67 H 5.0518 -0.9896 -3.2974 0
M  V30 68 H 3.5828 -4.4756 -0.6159 0
M  V30 69 H 3.3138 -2.9266 -1.4046 0
M  V30 70 H 2.0121 -6.3813 -0.9916 0
M  V30 71 H -0.0748 -3.5102 -4.3666 0
M  V30 72 H 0.3731 -7.3801 -2.5711 0
M  V30 73 H -0.6957 -5.9266 -4.2988 0
M  V30 END ATOM
M  V30 BEGIN BOND
M  V30 1 2 1 2
M  V30 2 1 2 3
M  V30 3 1 2 4
M  V30 4 1 3 5
M  V30 5 2 4 6
M  V30 6 1 4 7
M  V30 7 1 5 8
M  V30 8 1 5 9
M  V30 9 1 6 10
M  V30 10 1 6 11
M  V30 11 1 7 12
M  V30 12 2 7 13
M  V30 13 2 8 14
M  V30 14 1 8 15
M  V30 15 1 9 16
M  V30 16 1 10 17
M  V30 17 2 11 18
M  V30 18 1 11 19
M  V30 19 2 12 20
M  V30 20 1 13 21
M  V30 21 1 14 22
M  V30 22 2 15 23
M  V30 23 1 17 24
M  V30 24 2 19 25
M  V30 25 1 19 26
M  V30 26 1 20 27
M  V30 27 2 22 28
M  V30 28 1 24 29
M  V30 29 1 25 30
M  V30 30 2 26 31
M  V30 31 1 29 32
M  V30 32 2 30 33
M  V30 33 2 32 34
M  V30 34 1 32 35
M  V30 35 1 35 36
M  V30 36 2 36 37
M  V30 37 1 36 38
M  V30 38 1 37 39
M  V30 39 2 38 40
M  V30 40 2 39 41
M  V30 41 1 12 18
M  V30 42 2 21 27
M  V30 43 1 23 28
M  V30 44 1 31 33
M  V30 45 1 40 41
M  V30 46 1 3 42
M  V30 47 1 5 43
M  V30 48 1 9 44
M  V30 49 1 9 45
M  V30 50 1 13 46
M  V30 51 1 14 47
M  V30 52 1 15 48
M  V30 53 1 16 49
M  V30 54 1 16 50
M  V30 55 1 16 51
M  V30 56 1 17 52
M  V30 57 1 17 53
M  V30 58 1 20 54
M  V30 59 1 21 55
M  V30 60 1 22 56
M  V30 61 1 23 57
M  V30 62 1 24 58
M  V30 63 1 24 59
M  V30 64 1 25 60
M  V30 65 1 26 61
M  V30 66 1 27 62
M  V30 67 1 28 63
M  V30 68 1 29 64
M  V30 69 1 30 65
M  V30 70 1 31 66
M  V30 71 1 33 67
M  V30 72 1 35 68
M  V30 73 1 35 69
M  V30 74 1 38 70
M  V30 75 1 39 71
M  V30 76 1 40 72
M  V30 77 1 41 73
M  V30 END BOND
M  V30 BEGIN COLLECTION
M  V30 MDLV30/STEABS ATOMS=(1 5)
M  V30 END COLLECTION
M  V30 END CTAB
M  END
>  <level_0>
1675

>  <index>
1675

>  <NO.>
1676

>  <Name>
skb-g

>  <SMILES>
CC[C@H](NC(=O)c1c(OCCNC(=O)Cc2ccccn2)c(-c2ccccc2)nc2ccccc12)c1ccccc1

>  <logBB>


>  <Class>
-1

>  <MW>
544.25

>  <nHBAcc>
5

>  <nHBDon>
2

>  <SLogP>
5.92

>  <TopoPSA>
93.21

>  <MMFF94 Energy>
93.918

$$$$
CC[C@H](NC(=O)c1c(OCCNC(=O)[C@@H]2CCCN2)c(-c2ccccc2)nc2ccccc12)c1ccccc1
Actelion Java MolfileCreator 2.0

  0  0  0  0  0  0              0 V3000
M  V30 BEGIN CTAB
M  V30 COUNTS 73 77 0 0 0
M  V30 BEGIN ATOM
M  V30 1 O -2.5484 2.0702 -0.0795 0
M  V30 2 C -1.5394 1.9422 0.6019 0
M  V30 3 N -1.4969 1.312 1.8236 0
M  V30 4 C -0.2527 2.5077 0.1358 0
M  V30 5 C -2.6821 0.7318 2.4364 0 CFG=2
M  V30 6 C 0.8452 1.6591 -0.0404 0
M  V30 7 C -0.1517 3.892 -0.143 0
M  V30 8 C -2.5831 0.7282 3.9548 0
M  V30 9 C -3.0453 -0.643 1.8388 0
M  V30 10 O 0.7504 0.312 0.1991 0
M  V30 11 C 2.0532 2.2197 -0.4509 0
M  V30 12 C 1.1038 4.3502 -0.5831 0
M  V30 13 C -1.2053 4.8325 1.0E-4 0
M  V30 14 C -1.4491 0.2561 4.6365 0
M  V30 15 C -3.665 1.2027 4.7158 0
M  V30 16 C -2.0112 -1.7435 2.0368 0
M  V30 17 C 0.2546 -0.3767 -0.9633 0
M  V30 18 N 2.1655 3.5432 -0.733 0
M  V30 19 C 3.2967 1.4468 -0.6444 0
M  V30 20 C 1.2666 5.699 -0.8699 0
M  V30 21 C -1.0172 6.1819 -0.2937 0
M  V30 22 C -1.397 0.2656 6.0326 0
M  V30 23 C -3.6116 1.2126 6.1113 0
M  V30 24 C 0.8721 -1.7751 -1.0009 0
M  V30 25 C 4.0751 1.628 -1.8019 0
M  V30 26 C 3.7561 0.5222 0.3105 0
M  V30 27 C 0.2239 6.6171 -0.7315 0
M  V30 28 C -2.4771 0.7451 6.7691 0
M  V30 29 N 0.4462 -2.5435 -2.1468 0
M  V30 30 C 5.2502 0.9003 -2.0085 0
M  V30 31 C 4.9311 -0.2073 0.1065 0
M  V30 32 C -0.7694 -3.1842 -2.2118 0
M  V30 33 C 5.6754 -0.0199 -1.0548 0
M  V30 34 O -1.5882 -3.1769 -1.2976 0
M  V30 35 C -0.9886 -3.9674 -3.5151 0 CFG=1
M  V30 36 N -0.1018 -3.4519 -4.5958 0
M  V30 37 C -0.6151 -5.4392 -3.3481 0
M  V30 38 C 0.2245 -4.6122 -5.4213 0
M  V30 39 C 0.4633 -5.6937 -4.3896 0
M  V30 40 H -0.6106 1.2305 2.3017 0
M  V30 41 H -3.5073 1.4065 2.1686 0
M  V30 42 H -3.2086 -0.5281 0.7598 0
M  V30 43 H -3.9985 -0.9838 2.2624 0
M  V30 44 H -2.1912 4.5156 0.338 0
M  V30 45 H -0.5962 -0.1371 4.0892 0
M  V30 46 H -4.5627 1.572 4.2231 0
M  V30 47 H -1.0189 -1.4314 1.7019 0
M  V30 48 H -2.2973 -2.6296 1.461 0
M  V30 49 H -1.9466 -2.0489 3.0848 0
M  V30 50 H 0.5013 0.1528 -1.894 0
M  V30 51 H -0.8368 -0.4454 -0.8919 0
M  V30 52 H 2.2394 6.0487 -1.2097 0
M  V30 53 H -1.8393 6.8845 -0.1821 0
M  V30 54 H -0.5135 -0.1058 6.5451 0
M  V30 55 H -4.4573 1.585 6.6837 0
M  V30 56 H 1.9641 -1.7065 -1.0381 0
M  V30 57 H 0.6174 -2.3224 -0.0861 0
M  V30 58 H 3.7621 2.3502 -2.5548 0
M  V30 59 H 3.2015 0.3669 1.2339 0
M  V30 60 H 0.3874 7.6657 -0.9653 0
M  V30 61 H -2.4362 0.7513 7.8551 0
M  V30 62 H 1.0152 -2.5997 -2.9899 0
M  V30 63 H 5.8335 1.0593 -2.9116 0
M  V30 64 H 5.2665 -0.9164 0.859 0
M  V30 65 H 6.5914 -0.5834 -1.2121 0
M  V30 66 H -2.0383 -3.86 -3.8126 0
M  V30 67 H -0.6052 -2.7519 -5.1419 0
M  V30 68 H -1.4883 -6.0658 -3.5663 0
M  V30 69 H -0.2599 -5.6966 -2.3448 0
M  V30 70 H 1.1072 -4.4305 -6.0403 0
M  V30 71 H -0.6176 -4.87 -6.0739 0
M  V30 72 H 1.4551 -5.5767 -3.9353 0
M  V30 73 H 0.3998 -6.7 -4.8137 0
M  V30 END ATOM
M  V30 BEGIN BOND
M  V30 1 2 1 2
M  V30 2 1 2 3
M  V30 3 1 2 4
M  V30 4 1 3 5
M  V30 5 2 4 6
M  V30 6 1 4 7
M  V30 7 1 5 8
M  V30 8 1 5 9
M  V30 9 1 6 10
M  V30 10 1 6 11
M  V30 11 1 7 12
M  V30 12 2 7 13
M  V30 13 2 8 14
M  V30 14 1 8 15
M  V30 15 1 9 16
M  V30 16 1 10 17
M  V30 17 2 11 18
M  V30 18 1 11 19
M  V30 19 2 12 20
M  V30 20 1 13 21
M  V30 21 1 14 22
M  V30 22 2 15 23
M  V30 23 1 17 24
M  V30 24 2 19 25
M  V30 25 1 19 26
M  V30 26 1 20 27
M  V30 27 2 22 28
M  V30 28 1 24 29
M  V30 29 1 25 30
M  V30 30 2 26 31
M  V30 31 1 29 32
M  V30 32 2 30 33
M  V30 33 2 32 34
M  V30 34 1 32 35
M  V30 35 1 35 36
M  V30 36 1 35 37
M  V30 37 1 36 38
M  V30 38 1 37 39
M  V30 39 1 12 18
M  V30 40 2 21 27
M  V30 41 1 23 28
M  V30 42 1 31 33
M  V30 43 1 38 39
M  V30 44 1 3 40
M  V30 45 1 5 41
M  V30 46 1 9 42
M  V30 47 1 9 43
M  V30 48 1 13 44
M  V30 49 1 14 45
M  V30 50 1 15 46
M  V30 51 1 16 47
M  V30 52 1 16 48
M  V30 53 1 16 49
M  V30 54 1 17 50
M  V30 55 1 17 51
M  V30 56 1 20 52
M  V30 57 1 21 53
M  V30 58 1 22 54
M  V30 59 1 23 55
M  V30 60 1 24 56
M  V30 61 1 24 57
M  V30 62 1 25 58
M  V30 63 1 26 59
M  V30 64 1 27 60
M  V30 65 1 28 61
M  V30 66 1 29 62
M  V30 67 1 30 63
M  V30 68 1 31 64
M  V30 69 1 33 65
M  V30 70 1 35 66
M  V30 71 1 36 67
M  V30 72 1 37 68
M  V30 73 1 37 69
M  V30 74 1 38 70
M  V30 75 1 38 71
M  V30 76 1 39 72
M  V30 77 1 39 73
M  V30 END BOND
M  V30 BEGIN COLLECTION
M  V30 MDLV30/STEABS ATOMS=(2 5 35)
M  V30 END COLLECTION
M  V30 END CTAB
M  END
>  <level_0>
1676

>  <index>
1676

>  <NO.>
1677

>  <Name>
skb-h

>  <SMILES>
CC[C@H](NC(=O)c1c(OCCNC(=O)[C@@H]2CCCN2)c(-c2ccccc2)nc2ccccc12)c1ccccc1

>  <logBB>


>  <Class>
-1

>  <MW>
522.26

>  <nHBAcc>
5

>  <nHBDon>
3

>  <SLogP>
5.03

>  <TopoPSA>
92.35

>  <MMFF94 Energy>
108.56

$$$$
CC[C@H]1OC(=O)[C@H](C)[C@@H](OC2CC(C)(OC)C(O)C(C)O2)C(C)[C@@H](OC2OC(C)CC(N(C)C)C2O)[C@](C)(O)C[C@@H](C)/C(=N/OC)[C@H](C)[C@@H](O)[C@]1(C)O
Actelion Java MolfileCreator 2.0

  0  0  0  0  0  0              0 V3000
M  V30 BEGIN CTAB
M  V30 COUNTS 123 125 0 0 0
M  V30 BEGIN ATOM
M  V30 1 O -3.5611 -2.5313 -0.7905 0
M  V30 2 C -3.1132 -2.0296 0.2314 0
M  V30 3 O -2.3471 -2.6888 1.1469 0
M  V30 4 C -3.2446 -0.5758 0.6412 0 CFG=1
M  V30 5 C -1.8945 -4.0334 0.8029 0 CFG=1
M  V30 6 C -1.9194 0.1478 0.2537 0 CFG=1
M  V30 7 C -4.5299 0.0207 0.068 0
M  V30 8 C -0.5779 -3.893 -0.0408 0 CFG=1
M  V30 9 C -1.8657 -4.7753 2.1446 0
M  V30 10 O -2.1367 1.0829 -0.8002 0
M  V30 11 C -1.3113 0.9059 1.4896 0
M  V30 12 O -0.9143 -3.1281 -1.2473 0
M  V30 13 C 0.524 -3.0191 0.6508 0 CFG=2
M  V30 14 C -0.0464 -5.2169 -0.5896 0
M  V30 15 C -1.6142 -6.2696 2.0772 0
M  V30 16 C -2.0018 0.5609 -2.1244 0
M  V30 17 C 0.2454 1.0927 1.3635 0 CFG=1
M  V30 18 C -2.0695 2.2259 1.7216 0
M  V30 19 O 1.3519 -2.4445 -0.3768 0
M  V30 20 C 1.4182 -3.7005 1.7072 0 CFG=2
M  V30 21 O -0.6418 0.21 -2.3548 0
M  V30 22 C -2.4736 1.693 -3.0411 0
M  V30 23 O 0.5567 2.3432 0.7196 0
M  V30 24 C 1.0273 1.0705 2.7357 0 CFG=2
M  V30 25 C 1.6076 -2.78 2.9285 0
M  V30 26 C 2.7955 -4.1341 1.203 0
M  V30 27 C -0.3766 -0.1675 -3.7101 0
M  V30 28 C -2.1585 1.4235 -4.5168 0
M  V30 29 C 1.1106 2.2183 -0.5913 0
M  V30 30 O 2.3648 1.5218 2.479 0
M  V30 31 C 1.11 -0.3456 3.3682 0
M  V30 32 C 0.4702 2.0466 3.7802 0
M  V30 33 N 1.409 -3.1529 4.162 0
M  V30 34 C 2.1015 -1.3364 2.7096 0 CFG=1
M  V30 35 C -0.6573 1.0362 -4.6283 0
M  V30 36 C 1.0807 -0.6075 -3.7882 0
M  V30 37 O -2.902 0.289 -5.0096 0
M  V30 38 C -2.436 2.6788 -5.3598 0
M  V30 39 O 0.4086 3.0769 -1.5112 0
M  V30 40 C 2.6275 2.5322 -0.6796 0
M  V30 41 O 1.0258 -4.4934 4.2675 0
M  V30 42 C 3.5172 -1.2202 3.285 0
M  V30 43 O 0.1946 2.1349 -4.2599 0
M  V30 44 C -4.3065 0.4388 -5.1562 0
M  V30 45 C 0.5292 4.4545 -1.1395 0
M  V30 46 O 3.1177 2.229 -2.0054 0
M  V30 47 C 2.9393 4.0278 -0.3756 0
M  V30 48 C 0.9025 -4.8163 5.6474 0
M  V30 49 C 1.9887 4.8926 -1.2412 0
M  V30 50 C -0.3445 5.2605 -2.0933 0
M  V30 51 N 2.9478 4.2817 1.0962 0
M  V30 52 C 2.6556 5.6658 1.473 0
M  V30 53 C 4.2673 3.924 1.6568 0
M  V30 54 H -3.37 -0.589 1.7322 0
M  V30 55 H -2.6654 -4.5103 0.183 0
M  V30 56 H -1.1766 -0.5893 -0.0666 0
M  V30 57 H -4.5755 -0.0523 -1.0225 0
M  V30 58 H -4.64 1.0726 0.3468 0
M  V30 59 H -5.4019 -0.5188 0.4551 0
M  V30 60 H -2.8488 -4.6327 2.6161 0
M  V30 61 H -1.1698 -4.296 2.8379 0
M  V30 62 H -1.4781 0.2607 2.3588 0
M  V30 63 H -1.8099 -3.3924 -1.5436 0
M  V30 64 H 0.0199 -2.1624 1.1063 0
M  V30 65 H 0.404 -5.8528 0.1718 0
M  V30 66 H -0.8492 -5.7808 -1.0782 0
M  V30 67 H 0.712 -5.0403 -1.3616 0
M  V30 68 H -1.9038 -6.7369 3.0246 0
M  V30 69 H -2.1991 -6.7379 1.28 0
M  V30 70 H -0.5584 -6.499 1.9265 0
M  V30 71 H -2.6319 -0.326 -2.2506 0
M  V30 72 H 0.6577 0.2671 0.7744 0
M  V30 73 H -3.1384 2.0382 1.8611 0
M  V30 74 H -1.9596 2.918 0.8805 0
M  V30 75 H -1.7327 2.7505 2.6156 0
M  V30 76 H 0.7384 -2.2902 -1.1291 0
M  V30 77 H 0.9083 -4.6031 2.043 0
M  V30 78 H -1.9914 2.6281 -2.73 0
M  V30 79 H -3.5433 1.8611 -2.8727 0
M  V30 80 H 3.4053 -3.2828 0.8835 0
M  V30 81 H 3.3498 -4.6447 1.9985 0
M  V30 82 H 2.7088 -4.8256 0.3599 0
M  V30 83 H -1.0075 -1.0254 -3.972 0
M  V30 84 H 0.9694 1.209 -0.9789 0
M  V30 85 H 2.2642 2.4129 2.0751 0
M  V30 86 H 0.105 -0.7829 3.3946 0
M  V30 87 H 1.4039 -0.2425 4.4224 0
M  V30 88 H 1.1511 2.1243 4.6369 0
M  V30 89 H 0.3917 3.061 3.374 0
M  V30 90 H -0.5044 1.729 4.1615 0
M  V30 91 H 2.1627 -1.1456 1.6365 0
M  V30 92 H -0.4195 0.7647 -5.6637 0
M  V30 93 H 1.2442 -1.4891 -3.1608 0
M  V30 94 H 1.3639 -0.8602 -4.8143 0
M  V30 95 H 1.7568 0.1675 -3.4146 0
M  V30 96 H -2.2866 2.4702 -6.4249 0
M  V30 97 H -3.4705 3.019 -5.2421 0
M  V30 98 H -1.79 3.5161 -5.0761 0
M  V30 99 H 3.1797 1.8747 -0.0035 0
M  V30 100 H 3.9726 -0.2552 3.0495 0
M  V30 101 H 3.5199 -1.3364 4.3745 0
M  V30 102 H 4.1698 -1.9988 2.8761 0
M  V30 103 H 0.1087 2.2497 -3.2878 0
M  V30 104 H -4.5441 1.1479 -5.953 0
M  V30 105 H -4.784 0.7376 -4.2208 0
M  V30 106 H -4.7167 -0.5329 -5.4457 0
M  V30 107 H 0.1436 4.6008 -0.1241 0
M  V30 108 H 2.4079 2.4638 -2.6344 0
M  V30 109 H 3.9438 4.2574 -0.7609 0
M  V30 110 H 0.1364 -4.1908 6.1159 0
M  V30 111 H 1.8626 -4.6828 6.1553 0
M  V30 112 H 0.6016 -5.8638 5.731 0
M  V30 113 H 2.0957 5.9601 -1.0212 0
M  V30 114 H 2.3106 4.783 -2.2867 0
M  V30 115 H -0.0483 5.0953 -3.135 0
M  V30 116 H -0.2888 6.3314 -1.8757 0
M  V30 117 H -1.3897 4.9439 -2.0104 0
M  V30 118 H 2.7273 5.7918 2.56 0
M  V30 119 H 1.6275 5.9384 1.2161 0
M  V30 120 H 3.3433 6.3778 1.003 0
M  V30 121 H 5.0614 4.5822 1.2853 0
M  V30 122 H 4.2459 3.9945 2.7504 0
M  V30 123 H 4.5439 2.8924 1.4188 0
M  V30 END ATOM
M  V30 BEGIN BOND
M  V30 1 2 1 2
M  V30 2 1 2 3
M  V30 3 1 2 4
M  V30 4 1 3 5
M  V30 5 1 4 6
M  V30 6 1 4 7
M  V30 7 1 5 8
M  V30 8 1 5 9
M  V30 9 1 6 10
M  V30 10 1 6 11
M  V30 11 1 8 12
M  V30 12 1 8 13
M  V30 13 1 8 14
M  V30 14 1 9 15
M  V30 15 1 10 16
M  V30 16 1 11 17
M  V30 17 1 11 18
M  V30 18 1 13 19
M  V30 19 1 13 20
M  V30 20 1 16 21
M  V30 21 1 16 22
M  V30 22 1 17 23
M  V30 23 1 17 24
M  V30 24 1 20 25
M  V30 25 1 20 26
M  V30 26 1 21 27
M  V30 27 1 22 28
M  V30 28 1 23 29
M  V30 29 1 24 30
M  V30 30 1 24 31
M  V30 31 1 24 32
M  V30 32 2 25 33
M  V30 33 1 25 34
M  V30 34 1 27 35
M  V30 35 1 27 36
M  V30 36 1 28 37
M  V30 37 1 28 38
M  V30 38 1 29 39
M  V30 39 1 29 40
M  V30 40 1 33 41
M  V30 41 1 34 42
M  V30 42 1 35 43
M  V30 43 1 37 44
M  V30 44 1 39 45
M  V30 45 1 40 46
M  V30 46 1 40 47
M  V30 47 1 41 48
M  V30 48 1 45 49
M  V30 49 1 45 50
M  V30 50 1 47 51
M  V30 51 1 51 52
M  V30 52 1 51 53
M  V30 53 1 28 35
M  V30 54 1 31 34
M  V30 55 1 47 49
M  V30 56 1 4 54
M  V30 57 1 5 55
M  V30 58 1 6 56
M  V30 59 1 7 57
M  V30 60 1 7 58
M  V30 61 1 7 59
M  V30 62 1 9 60
M  V30 63 1 9 61
M  V30 64 1 11 62
M  V30 65 1 12 63
M  V30 66 1 13 64
M  V30 67 1 14 65
M  V30 68 1 14 66
M  V30 69 1 14 67
M  V30 70 1 15 68
M  V30 71 1 15 69
M  V30 72 1 15 70
M  V30 73 1 16 71
M  V30 74 1 17 72
M  V30 75 1 18 73
M  V30 76 1 18 74
M  V30 77 1 18 75
M  V30 78 1 19 76
M  V30 79 1 20 77
M  V30 80 1 22 78
M  V30 81 1 22 79
M  V30 82 1 26 80
M  V30 83 1 26 81
M  V30 84 1 26 82
M  V30 85 1 27 83
M  V30 86 1 29 84
M  V30 87 1 30 85
M  V30 88 1 31 86
M  V30 89 1 31 87
M  V30 90 1 32 88
M  V30 91 1 32 89
M  V30 92 1 32 90
M  V30 93 1 34 91
M  V30 94 1 35 92
M  V30 95 1 36 93
M  V30 96 1 36 94
M  V30 97 1 36 95
M  V30 98 1 38 96
M  V30 99 1 38 97
M  V30 100 1 38 98
M  V30 101 1 40 99
M  V30 102 1 42 100
M  V30 103 1 42 101
M  V30 104 1 42 102
M  V30 105 1 43 103
M  V30 106 1 44 104
M  V30 107 1 44 105
M  V30 108 1 44 106
M  V30 109 1 45 107
M  V30 110 1 46 108
M  V30 111 1 47 109
M  V30 112 1 48 110
M  V30 113 1 48 111
M  V30 114 1 48 112
M  V30 115 1 49 113
M  V30 116 1 49 114
M  V30 117 1 50 115
M  V30 118 1 50 116
M  V30 119 1 50 117
M  V30 120 1 52 118
M  V30 121 1 52 119
M  V30 122 1 52 120
M  V30 123 1 53 121
M  V30 124 1 53 122
M  V30 125 1 53 123
M  V30 END BOND
M  V30 BEGIN COLLECTION
M  V30 MDLV30/STEABS ATOMS=(9 4 5 6 8 13 17 20 24 34)
M  V30 END COLLECTION
M  V30 END CTAB
M  END
>  <level_0>
1679

>  <index>
1679

>  <NO.>
1680

>  <Name>
lexithromycin

>  <SMILES>
CC[C@H]1OC(=O)[C@H](C)[C@@H](OC2CC(C)(OC)C(O)C(C)O2)C(C)[C@@H](OC2OC(C)CC(N(C)C)C2O)[C@](C)(O)C[C@@H](C)/C(=N/OC)[C@H](C)[C@@H](O)[C@]1(C)O

>  <logBB>


>  <Class>
-1

>  <MW>
762.49

>  <nHBAcc>
15

>  <nHBDon>
5

>  <SLogP>
2.22

>  <TopoPSA>
198.43

>  <MMFF94 Energy>
218.25

$$$$
CC[C@H]1OC(=O)[C@H](C)[C@@H](OC2CC(C)(OC)C(O)C(C)O2)C(C)[C@@H](OC2OC(C)CC(N(C)C)C2O)[C@](C)(O)C[C@@H](C)C(=O)[C@H](C)[C@@H](O)[C@H]1C
Actelion Java MolfileCreator 2.0

  0  0  0  0  0  0              0 V3000
M  V30 BEGIN CTAB
M  V30 COUNTS 117 119 0 0 0
M  V30 BEGIN ATOM
M  V30 1 O -2.1345 2.6093 1.5808 0
M  V30 2 C -1.2787 1.9263 1.0325 0
M  V30 3 O 0.0655 2.0971 1.2025 0
M  V30 4 C -1.5721 0.7751 0.0743 0 CFG=1
M  V30 5 C 0.4821 3.0398 2.2188 0 CFG=1
M  V30 6 C -1.0767 -0.5606 0.6862 0 CFG=1
M  V30 7 C -3.0614 0.816 -0.2786 0
M  V30 8 C 1.4868 2.3275 3.1734 0 CFG=1
M  V30 9 C 0.9863 4.3429 1.5677 0
M  V30 10 O -1.9585 -1.0058 1.7383 0
M  V30 11 C -0.9372 -1.7923 -0.2682 0
M  V30 12 C 2.4182 1.2625 2.5266 0 CFG=2
M  V30 13 C 2.1952 3.3033 4.1195 0
M  V30 14 C -0.0231 4.971 0.6143 0
M  V30 15 C -1.6557 -0.5639 3.0573 0
M  V30 16 C 0.046 -1.6816 -1.4772 0 CFG=1
M  V30 17 C -2.2893 -2.3797 -0.7171 0
M  V30 18 O 3.2243 0.6786 3.5581 0
M  V30 19 C 3.31 1.7095 1.3516 0 CFG=2
M  V30 20 O -0.3285 -0.8828 3.4723 0
M  V30 21 C -2.6963 -1.1005 4.049 0
M  V30 22 O -0.436 -0.7222 -2.4326 0
M  V30 23 C 1.5642 -1.4076 -1.1089 0 CFG=2
M  V30 24 C 3.6832 0.4776 0.529 0
M  V30 25 C 4.5974 2.4269 1.7464 0
M  V30 26 C -0.1098 -2.2943 3.6109 0
M  V30 27 C -2.4928 -2.5949 4.3939 0
M  V30 28 C -0.976 -1.3079 -3.6262 0
M  V30 29 O 1.8028 -1.8379 0.2343 0
M  V30 30 C 1.9459 0.0921 -1.2584 0
M  V30 31 C 2.4475 -2.2848 -2.0177 0
M  V30 32 O 4.1332 -0.5395 1.0708 0
M  V30 33 C 3.4143 0.4655 -0.9744 0 CFG=1
M  V30 34 C -0.9998 -2.823 4.7485 0
M  V30 35 C 1.3738 -2.4924 3.9033 0
M  V30 36 O -2.908 -3.3352 3.229 0
M  V30 37 C -3.4108 -2.9399 5.5809 0
M  V30 38 O 0.0581 -1.6827 -4.5378 0
M  V30 39 C -2.0118 -0.3367 -4.2494 0
M  V30 40 C 3.7884 1.7819 -1.6585 0
M  V30 41 O -0.6719 -2.149 5.9759 0
M  V30 42 C -2.8388 -4.7505 3.292 0
M  V30 43 C 0.7382 -0.5877 -5.1466 0
M  V30 44 O -2.8201 -1.0423 -5.2004 0
M  V30 45 C -1.2915 0.871 -4.9026 0
M  V30 46 C -0.225 0.3461 -5.8775 0
M  V30 47 C 1.7634 -1.1678 -6.1142 0
M  V30 48 N -2.1341 1.9441 -5.491 0
M  V30 49 C -3.1796 2.4216 -4.5911 0
M  V30 50 C -2.6406 1.7293 -6.8407 0
M  V30 51 H -1.0132 1.0153 -0.8352 0
M  V30 52 H -0.3726 3.321 2.8492 0
M  V30 53 H -0.0841 -0.3985 1.1134 0
M  V30 54 H -3.295 0.181 -1.1319 0
M  V30 55 H -3.3674 1.8305 -0.5613 0
M  V30 56 H -3.6904 0.5115 0.5644 0
M  V30 57 H 0.8515 1.7259 3.8438 0
M  V30 58 H 1.9084 4.1793 1.007 0
M  V30 59 H 1.2156 5.0791 2.3463 0
M  V30 60 H -0.5296 -2.5916 0.3685 0
M  V30 61 H 1.7677 0.4534 2.1751 0
M  V30 62 H 1.4597 3.9188 4.6499 0
M  V30 63 H 2.87 3.9793 3.5915 0
M  V30 64 H 2.7768 2.7734 4.8804 0
M  V30 65 H 0.3613 5.9241 0.2366 0
M  V30 66 H -0.2134 4.326 -0.2487 0
M  V30 67 H -0.9725 5.1691 1.1213 0
M  V30 68 H -1.7374 0.524 3.0831 0
M  V30 69 H 0.0264 -2.6791 -1.9393 0
M  V30 70 H -2.1372 -3.3703 -1.1614 0
M  V30 71 H -2.7863 -1.7681 -1.4693 0
M  V30 72 H -2.9781 -2.5158 0.122 0
M  V30 73 H 3.6739 -0.0929 3.1568 0
M  V30 74 H 2.7231 2.3472 0.6956 0
M  V30 75 H -2.6157 -0.5088 4.9702 0
M  V30 76 H -3.7009 -0.947 3.6348 0
M  V30 77 H 5.2203 2.6266 0.8684 0
M  V30 78 H 5.2057 1.8288 2.4331 0
M  V30 79 H 4.3927 3.3896 2.2178 0
M  V30 80 H -0.3415 -2.803 2.6696 0
M  V30 81 H -1.5096 -2.233 -3.3808 0
M  V30 82 H 2.7627 -1.8127 0.426 0
M  V30 83 H 1.712 0.4153 -2.2773 0
M  V30 84 H 1.3117 0.6813 -0.5909 0
M  V30 85 H 3.4921 -2.2925 -1.6912 0
M  V30 86 H 2.4089 -1.9575 -3.0591 0
M  V30 87 H 2.1324 -3.3341 -1.972 0
M  V30 88 H 4.0912 -0.2814 -1.4014 0
M  V30 89 H -0.7963 -3.8856 4.9118 0
M  V30 90 H 1.6929 -1.9234 4.7831 0
M  V30 91 H 1.9753 -2.1247 3.0653 0
M  V30 92 H 1.6089 -3.5492 4.0603 0
M  V30 93 H -4.4641 -2.905 5.28 0
M  V30 94 H -3.2713 -2.2527 6.4223 0
M  V30 95 H -3.2175 -3.9519 5.9522 0
M  V30 96 H -2.6762 0.009 -3.4502 0
M  V30 97 H 4.7988 2.0972 -1.3809 0
M  V30 98 H 3.7671 1.6621 -2.7475 0
M  V30 99 H 3.0968 2.5925 -1.4088 0
M  V30 100 H -0.3767 -1.2503 5.7304 0
M  V30 101 H -3.478 -5.1498 4.0829 0
M  V30 102 H -3.2039 -5.1442 2.3389 0
M  V30 103 H -1.8098 -5.0943 3.4186 0
M  V30 104 H 1.2785 -0.0313 -4.3749 0
M  V30 105 H -3.5612 -0.4539 -5.4191 0
M  V30 106 H -0.7399 1.3734 -4.094 0
M  V30 107 H -0.7044 -0.2049 -6.6963 0
M  V30 108 H 0.3347 1.181 -6.3169 0
M  V30 109 H 1.2752 -1.7719 -6.8871 0
M  V30 110 H 2.3441 -0.3779 -6.6002 0
M  V30 111 H 2.4546 -1.8337 -5.5867 0
M  V30 112 H -3.6082 3.3584 -4.9647 0
M  V30 113 H -3.9947 1.6988 -4.4795 0
M  V30 114 H -2.771 2.6427 -3.5986 0
M  V30 115 H -3.1705 2.6228 -7.1924 0
M  V30 116 H -1.8283 1.5757 -7.5574 0
M  V30 117 H -3.3346 0.8892 -6.9143 0
M  V30 END ATOM
M  V30 BEGIN BOND
M  V30 1 2 1 2
M  V30 2 1 2 3
M  V30 3 1 2 4
M  V30 4 1 3 5
M  V30 5 1 4 6
M  V30 6 1 4 7
M  V30 7 1 5 8
M  V30 8 1 5 9
M  V30 9 1 6 10
M  V30 10 1 6 11
M  V30 11 1 8 12
M  V30 12 1 8 13
M  V30 13 1 9 14
M  V30 14 1 10 15
M  V30 15 1 11 16
M  V30 16 1 11 17
M  V30 17 1 12 18
M  V30 18 1 12 19
M  V30 19 1 15 20
M  V30 20 1 15 21
M  V30 21 1 16 22
M  V30 22 1 16 23
M  V30 23 1 19 24
M  V30 24 1 19 25
M  V30 25 1 20 26
M  V30 26 1 21 27
M  V30 27 1 22 28
M  V30 28 1 23 29
M  V30 29 1 23 30
M  V30 30 1 23 31
M  V30 31 2 24 32
M  V30 32 1 24 33
M  V30 33 1 26 34
M  V30 34 1 26 35
M  V30 35 1 27 36
M  V30 36 1 27 37
M  V30 37 1 28 38
M  V30 38 1 28 39
M  V30 39 1 33 40
M  V30 40 1 34 41
M  V30 41 1 36 42
M  V30 42 1 38 43
M  V30 43 1 39 44
M  V30 44 1 39 45
M  V30 45 1 43 46
M  V30 46 1 43 47
M  V30 47 1 45 48
M  V30 48 1 48 49
M  V30 49 1 48 50
M  V30 50 1 27 34
M  V30 51 1 30 33
M  V30 52 1 45 46
M  V30 53 1 4 51
M  V30 54 1 5 52
M  V30 55 1 6 53
M  V30 56 1 7 54
M  V30 57 1 7 55
M  V30 58 1 7 56
M  V30 59 1 8 57
M  V30 60 1 9 58
M  V30 61 1 9 59
M  V30 62 1 11 60
M  V30 63 1 12 61
M  V30 64 1 13 62
M  V30 65 1 13 63
M  V30 66 1 13 64
M  V30 67 1 14 65
M  V30 68 1 14 66
M  V30 69 1 14 67
M  V30 70 1 15 68
M  V30 71 1 16 69
M  V30 72 1 17 70
M  V30 73 1 17 71
M  V30 74 1 17 72
M  V30 75 1 18 73
M  V30 76 1 19 74
M  V30 77 1 21 75
M  V30 78 1 21 76
M  V30 79 1 25 77
M  V30 80 1 25 78
M  V30 81 1 25 79
M  V30 82 1 26 80
M  V30 83 1 28 81
M  V30 84 1 29 82
M  V30 85 1 30 83
M  V30 86 1 30 84
M  V30 87 1 31 85
M  V30 88 1 31 86
M  V30 89 1 31 87
M  V30 90 1 33 88
M  V30 91 1 34 89
M  V30 92 1 35 90
M  V30 93 1 35 91
M  V30 94 1 35 92
M  V30 95 1 37 93
M  V30 96 1 37 94
M  V30 97 1 37 95
M  V30 98 1 39 96
M  V30 99 1 40 97
M  V30 100 1 40 98
M  V30 101 1 40 99
M  V30 102 1 41 100
M  V30 103 1 42 101
M  V30 104 1 42 102
M  V30 105 1 42 103
M  V30 106 1 43 104
M  V30 107 1 44 105
M  V30 108 1 45 106
M  V30 109 1 46 107
M  V30 110 1 46 108
M  V30 111 1 47 109
M  V30 112 1 47 110
M  V30 113 1 47 111
M  V30 114 1 49 112
M  V30 115 1 49 113
M  V30 116 1 49 114
M  V30 117 1 50 115
M  V30 118 1 50 116
M  V30 119 1 50 117
M  V30 END BOND
M  V30 BEGIN COLLECTION
M  V30 MDLV30/STEABS ATOMS=(9 4 5 6 8 12 16 19 23 33)
M  V30 END COLLECTION
M  V30 END CTAB
M  END
>  <level_0>
1680

>  <index>
1680

>  <NO.>
1681

>  <Name>
berythromycin

>  <SMILES>
CC[C@H]1OC(=O)[C@H](C)[C@@H](OC2CC(C)(OC)C(O)C(C)O2)C(C)[C@@H](OC2OC(C)CC(N(C)C)C2O)[C@](C)(O)C[C@@H](C)C(=O)[C@H](C)[C@@H](O)[C@H]1C

>  <logBB>


>  <Class>
-1

>  <MW>
717.47

>  <nHBAcc>
13

>  <nHBDon>
4

>  <SLogP>
2.67

>  <TopoPSA>
173.68

>  <MMFF94 Energy>
174.57

$$$$
CC[C@H]1OC(=O)[C@H](C)[C@@H](O[C@H]2C[C@@](C)(OC)[C@@H](O)[C@H](C)O2)C(C)[C@@H](O[C@@H]2O[C@H](C)C[C@H](N(C)C)[C@H]2O)[C@](C)(O)C[C@@H](C)CN(C)[C@H](C)[C@@H](O)[C@]1(C)O
Actelion Java MolfileCreator 2.0

  0  0  0  0  0  0              0 V3000
M  V30 BEGIN CTAB
M  V30 COUNTS 124 126 0 0 0
M  V30 BEGIN ATOM
M  V30 1 O -1.1046 2.6054 2.7635 0
M  V30 2 C -0.5605 3.0899 1.7802 0
M  V30 3 O 0.6006 3.8047 1.7948 0
M  V30 4 C -1.1333 3.0295 0.3746 0 CFG=1
M  V30 5 C 1.2476 4.0071 3.0741 0 CFG=1
M  V30 6 C -1.5789 1.5806 0.006 0 CFG=1
M  V30 7 C -2.2745 4.0458 0.3023 0
M  V30 8 C 2.7929 3.7101 2.9892 0 CFG=1
M  V30 9 C 0.9527 5.4586 3.5262 0
M  V30 10 O -2.0878 1.5991 -1.3405 0
M  V30 11 C -0.3757 0.5872 0.06 0
M  V30 12 O 3.3963 4.0019 4.2661 0
M  V30 13 C 3.1761 2.2393 2.5936 0 CFG=2
M  V30 14 C 3.4422 4.6624 1.956 0
M  V30 15 C -0.5113 5.6872 3.8848 0
M  V30 16 C -3.501 1.4635 -1.4464 0 CFG=2
M  V30 17 C -0.745 -0.939 0.1988 0 CFG=1
M  V30 18 C 0.5722 0.8223 -1.1344 0
M  V30 19 O 2.6334 1.9014 1.3173 0
M  V30 20 C 3.024 1.0784 3.6613 0 CFG=2
M  V30 21 O -3.9174 0.1039 -1.4409 0
M  V30 22 C -4.0042 2.1809 -2.7028 0
M  V30 23 O 0.4306 -1.7421 -0.0431 0
M  V30 24 C -1.3425 -1.3804 1.5884 0 CFG=2
M  V30 25 N 3.213 -0.2742 3.0483 0
M  V30 26 C 1.8364 1.1838 4.613 0
M  V30 27 C -3.4836 -0.633 -2.5871 0 CFG=2
M  V30 28 C -3.6193 1.4635 -4.0085 0 CFG=2
M  V30 29 C 0.3707 -2.5052 -1.2637 0 CFG=2
M  V30 30 O -2.5848 -0.6632 1.7682 0
M  V30 31 C -0.4997 -1.0638 2.8607 0
M  V30 32 C -1.7674 -2.8581 1.56 0
M  V30 33 C 2.0506 -0.8841 2.3672 0
M  V30 34 C 3.8827 -1.2098 3.9489 0
M  V30 35 C -4.0364 -0.0252 -3.8877 0 CFG=1
M  V30 36 C -3.9699 -2.067 -2.4035 0
M  V30 37 O -2.1988 1.435 -4.2787 0
M  V30 38 C -4.3489 2.1018 -5.2035 0
M  V30 39 O -0.6195 -3.5236 -1.1747 0
M  V30 40 C 1.7709 -3.1341 -1.4631 0 CFG=2
M  V30 41 C 0.9309 -1.6006 3.162 0 CFG=2
M  V30 42 O -3.5465 -0.7548 -5.0214 0
M  V30 43 C -1.5322 2.6853 -4.3734 0
M  V30 44 C -0.7196 -4.2964 -2.3715 0 CFG=1
M  V30 45 O 2.7611 -2.1007 -1.5546 0
M  V30 46 C 1.7665 -4.0234 -2.7322 0 CFG=2
M  V30 47 C 1.0665 -3.1197 3.0731 0
M  V30 48 C 0.5979 -5.022 -2.6484 0
M  V30 49 C -1.8496 -5.3009 -2.1799 0
M  V30 50 N 3.0088 -4.7687 -3.0716 0
M  V30 51 C 3.644 -5.4274 -1.9306 0
M  V30 52 C 3.9861 -3.9167 -3.7541 0
M  V30 53 H -0.3705 3.3675 -0.3354 0
M  V30 54 H 0.8111 3.3626 3.8368 0
M  V30 55 H -2.3586 1.2822 0.707 0
M  V30 56 H -2.6361 4.1651 -0.7224 0
M  V30 57 H -1.941 5.0313 0.6463 0
M  V30 58 H -3.116 3.7459 0.9363 0
M  V30 59 H 1.2065 6.163 2.7259 0
M  V30 60 H 1.558 5.7135 4.4029 0
M  V30 61 H 0.1894 0.851 0.9485 0
M  V30 62 H 4.3615 4.0344 4.1434 0
M  V30 63 H 4.263 2.2627 2.4165 0
M  V30 64 H 4.5151 4.4583 1.8571 0
M  V30 65 H 3.3775 5.707 2.2783 0
M  V30 66 H 2.9871 4.5696 0.9651 0
M  V30 67 H -0.6487 6.7042 4.2666 0
M  V30 68 H -1.1607 5.5723 3.0129 0
M  V30 69 H -0.8405 4.9883 4.6602 0
M  V30 70 H -3.9821 1.9473 -0.5886 0
M  V30 71 H -1.5024 -1.1495 -0.5638 0
M  V30 72 H 0.8357 1.8771 -1.2482 0
M  V30 73 H 0.1239 0.4888 -2.0753 0
M  V30 74 H 1.5177 0.2928 -0.9967 0
M  V30 75 H 3.0778 1.0645 1.0819 0
M  V30 76 H 3.8939 1.2424 4.3161 0
M  V30 77 H -3.6395 3.213 -2.7076 0
M  V30 78 H -5.1005 2.2242 -2.6468 0
M  V30 79 H 1.9005 2.0914 5.2209 0
M  V30 80 H 1.827 0.361 5.3346 0
M  V30 81 H 0.8861 1.1905 4.083 0
M  V30 82 H -2.3877 -0.6599 -2.6171 0
M  V30 83 H 0.1418 -1.8239 -2.0922 0
M  V30 84 H -2.9894 -0.955 2.6033 0
M  V30 85 H -0.4785 0.0259 2.9637 0
M  V30 86 H -1.114 -1.3735 3.7215 0
M  V30 87 H -2.226 -3.1524 2.5117 0
M  V30 88 H -0.9444 -3.5425 1.3582 0
M  V30 89 H -2.5371 -3.021 0.7964 0
M  V30 90 H 1.5965 -0.1233 1.7549 0
M  V30 91 H 2.4702 -1.5923 1.641 0
M  V30 92 H 4.8479 -0.8058 4.2743 0
M  V30 93 H 3.2931 -1.4384 4.8419 0
M  V30 94 H 4.1078 -2.149 3.4316 0
M  V30 95 H -5.1312 -0.1006 -3.8848 0
M  V30 96 H -3.6341 -2.7146 -3.2183 0
M  V30 97 H -3.5989 -2.4748 -1.4575 0
M  V30 98 H -5.0637 -2.1062 -2.3518 0
M  V30 99 H -3.998 1.6821 -6.1527 0
M  V30 100 H -5.4323 1.9548 -5.1367 0
M  V30 101 H -4.1691 3.1814 -5.2488 0
M  V30 102 H 2.0114 -3.737 -0.5786 0
M  V30 103 H 1.0768 -1.3725 4.2237 0
M  V30 104 H -2.6496 -0.3928 -5.1773 0
M  V30 105 H -0.4787 2.4847 -4.5895 0
M  V30 106 H -1.9311 3.2891 -5.1917 0
M  V30 107 H -1.5767 3.2391 -3.4332 0
M  V30 108 H -0.9759 -3.6302 -3.2049 0
M  V30 109 H 2.6361 -1.5607 -0.7517 0
M  V30 110 H 1.5462 -3.3685 -3.5882 0
M  V30 111 H 1.9953 -3.4521 3.5484 0
M  V30 112 H 0.2414 -3.6192 3.591 0
M  V30 113 H 1.0965 -3.4671 2.0372 0
M  V30 114 H 0.5176 -5.5938 -3.5813 0
M  V30 115 H 0.7832 -5.7393 -1.8389 0
M  V30 116 H -1.9948 -5.9116 -3.076 0
M  V30 117 H -1.6455 -5.9641 -1.3317 0
M  V30 118 H -2.7887 -4.7879 -1.9514 0
M  V30 119 H 4.0529 -4.715 -1.2056 0
M  V30 120 H 2.9473 -6.091 -1.4093 0
M  V30 121 H 4.4687 -6.0624 -2.2746 0
M  V30 122 H 4.3994 -3.1361 -3.1084 0
M  V30 123 H 3.5429 -3.4414 -4.6363 0
M  V30 124 H 4.8219 -4.5231 -4.1219 0
M  V30 END ATOM
M  V30 BEGIN BOND
M  V30 1 2 1 2
M  V30 2 1 2 3
M  V30 3 1 2 4
M  V30 4 1 3 5
M  V30 5 1 4 6
M  V30 6 1 4 7
M  V30 7 1 5 8
M  V30 8 1 5 9
M  V30 9 1 6 10
M  V30 10 1 6 11
M  V30 11 1 8 12
M  V30 12 1 8 13
M  V30 13 1 8 14
M  V30 14 1 9 15
M  V30 15 1 10 16
M  V30 16 1 11 17
M  V30 17 1 11 18
M  V30 18 1 13 19
M  V30 19 1 13 20
M  V30 20 1 16 21
M  V30 21 1 16 22
M  V30 22 1 17 23
M  V30 23 1 17 24
M  V30 24 1 20 25
M  V30 25 1 20 26
M  V30 26 1 21 27
M  V30 27 1 22 28
M  V30 28 1 23 29
M  V30 29 1 24 30
M  V30 30 1 24 31
M  V30 31 1 24 32
M  V30 32 1 25 33
M  V30 33 1 25 34
M  V30 34 1 27 35
M  V30 35 1 27 36
M  V30 36 1 28 37
M  V30 37 1 28 38
M  V30 38 1 29 39
M  V30 39 1 29 40
M  V30 40 1 31 41
M  V30 41 1 35 42
M  V30 42 1 37 43
M  V30 43 1 39 44
M  V30 44 1 40 45
M  V30 45 1 40 46
M  V30 46 1 41 47
M  V30 47 1 44 48
M  V30 48 1 44 49
M  V30 49 1 46 50
M  V30 50 1 50 51
M  V30 51 1 50 52
M  V30 52 1 28 35
M  V30 53 1 33 41
M  V30 54 1 46 48
M  V30 55 1 4 53
M  V30 56 1 5 54
M  V30 57 1 6 55
M  V30 58 1 7 56
M  V30 59 1 7 57
M  V30 60 1 7 58
M  V30 61 1 9 59
M  V30 62 1 9 60
M  V30 63 1 11 61
M  V30 64 1 12 62
M  V30 65 1 13 63
M  V30 66 1 14 64
M  V30 67 1 14 65
M  V30 68 1 14 66
M  V30 69 1 15 67
M  V30 70 1 15 68
M  V30 71 1 15 69
M  V30 72 1 16 70
M  V30 73 1 17 71
M  V30 74 1 18 72
M  V30 75 1 18 73
M  V30 76 1 18 74
M  V30 77 1 19 75
M  V30 78 1 20 76
M  V30 79 1 22 77
M  V30 80 1 22 78
M  V30 81 1 26 79
M  V30 82 1 26 80
M  V30 83 1 26 81
M  V30 84 1 27 82
M  V30 85 1 29 83
M  V30 86 1 30 84
M  V30 87 1 31 85
M  V30 88 1 31 86
M  V30 89 1 32 87
M  V30 90 1 32 88
M  V30 91 1 32 89
M  V30 92 1 33 90
M  V30 93 1 33 91
M  V30 94 1 34 92
M  V30 95 1 34 93
M  V30 96 1 34 94
M  V30 97 1 35 95
M  V30 98 1 36 96
M  V30 99 1 36 97
M  V30 100 1 36 98
M  V30 101 1 38 99
M  V30 102 1 38 100
M  V30 103 1 38 101
M  V30 104 1 40 102
M  V30 105 1 41 103
M  V30 106 1 42 104
M  V30 107 1 43 105
M  V30 108 1 43 106
M  V30 109 1 43 107
M  V30 110 1 44 108
M  V30 111 1 45 109
M  V30 112 1 46 110
M  V30 113 1 47 111
M  V30 114 1 47 112
M  V30 115 1 47 113
M  V30 116 1 48 114
M  V30 117 1 48 115
M  V30 118 1 49 116
M  V30 119 1 49 117
M  V30 120 1 49 118
M  V30 121 1 51 119
M  V30 122 1 51 120
M  V30 123 1 51 121
M  V30 124 1 52 122
M  V30 125 1 52 123
M  V30 126 1 52 124
M  V30 END BOND
M  V30 BEGIN COLLECTION
M  V30 MDLV30/STEABS ATOMS=(17 4 5 6 8 13 16 17 20 24 27 28 29 35 40 41 44 46)
M  V30 END COLLECTION
M  V30 END CTAB
M  END
>  <level_0>
1681

>  <index>
1681

>  <NO.>
1682

>  <Name>
azithromycin

>  <SMILES>
CC[C@H]1OC(=O)[C@H](C)[C@@H](O[C@H]2C[C@@](C)(OC)[C@@H](O)[C@H](C)O2)C(C)[C@@H](O[C@@H]2O[C@H](C)C[C@H](N(C)C)[C@H]2O)[C@](C)(O)C[C@@H](C)CN(C)[C@H](C)[C@@H](O)[C@]1(C)O

>  <logBB>


>  <Class>
-1

>  <MW>
748.51

>  <nHBAcc>
14

>  <nHBDon>
5

>  <SLogP>
1.9

>  <TopoPSA>
180.08

>  <MMFF94 Energy>
251.81

$$$$
CC[C@H]1OC(=O)[C@H](C)[C@@H](O[C@H]2C[C@@](C)(OC)[C@@H](O)[C@H](C)O2)[C@H](C)[C@@H](O[C@@H]2O[C@H](C)C[C@H](N(C)C)[C@H]2O)[C@](C)(O)C[C@@H](C)/C(=N\OCOCCOC)[C@H](C)[C@@H](O)[C@]1(C)O
Actelion Java MolfileCreator 2.0

  0  0  0  0  0  0              0 V3000
M  V30 BEGIN CTAB
M  V30 COUNTS 134 136 0 0 0
M  V30 BEGIN ATOM
M  V30 1 O -2.292 1.0269 -2.7667 0
M  V30 2 C -2.6666 -0.0994 -2.4748 0
M  V30 3 O -3.8439 -0.409 -1.8771 0
M  V30 4 C -1.8434 -1.3485 -2.763 0 CFG=1
M  V30 5 C -4.9512 0.5474 -1.7156 0 CFG=1
M  V30 6 C -0.9766 -1.7538 -1.5407 0 CFG=1
M  V30 7 C -2.7551 -2.4818 -3.2535 0
M  V30 8 C -5.0848 0.9985 -0.2132 0 CFG=1
M  V30 9 C -5.0639 1.5772 -2.8525 0
M  V30 10 O -0.3414 -3.0121 -1.8361 0
M  V30 11 C 0.1316 -0.7032 -1.2173 0 CFG=1
M  V30 12 O -4.3985 0.0439 0.6247 0
M  V30 13 C -4.5937 2.427 0.1981 0 CFG=2
M  V30 14 C -6.5701 0.8728 0.2053 0
M  V30 15 C -6.4774 2.0831 -3.1072 0
M  V30 16 C -0.746 -4.1033 -1.0148 0 CFG=2
M  V30 17 C 0.7602 -0.8343 0.2172 0 CFG=1
M  V30 18 C 1.2422 -0.7323 -2.2895 0
M  V30 19 O -5.3635 3.4344 -0.4641 0
M  V30 20 C -3.0651 2.6789 0.0722 0 CFG=2
M  V30 21 O 0.0432 -4.201 0.1703 0
M  V30 22 C -0.7182 -5.4118 -1.8111 0
M  V30 23 O 1.7563 0.1907 0.3595 0
M  V30 24 C -0.2556 -0.7481 1.4258 0 CFG=2
M  V30 25 C -2.3848 2.6467 1.46 0
M  V30 26 C -2.709 4.0164 -0.5918 0
M  V30 27 C 1.4024 -4.5844 -0.0747 0 CFG=2
M  V30 28 C 0.7022 -5.9196 -2.1099 0 CFG=2
M  V30 29 C 3.1071 -0.293 0.457 0 CFG=2
M  V30 30 O -0.9924 -1.9943 1.48 0
M  V30 31 C -1.3621 0.3324 1.3099 0
M  V30 32 C 0.4535 -0.6443 2.7817 0
M  V30 33 N -2.8953 3.4195 2.3774 0
M  V30 34 C -1.0954 1.8099 1.6494 0 CFG=1
M  V30 35 C 1.4929 -5.9491 -0.7781 0 CFG=1
M  V30 36 C 2.1024 -4.6225 1.2807 0
M  V30 37 O 1.4679 -5.057 -2.9802 0
M  V30 38 C 0.6498 -7.3376 -2.7048 0
M  V30 39 O 3.2996 -1.0072 1.6736 0
M  V30 40 C 4.023 0.9512 0.3982 0 CFG=2
M  V30 41 O -2.1653 3.3956 3.5733 0
M  V30 42 C 0.0317 2.4997 0.8952 0
M  V30 43 O 2.8636 -6.2782 -1.0381 0
M  V30 44 C 0.9624 -4.8406 -4.2891 0
M  V30 45 C 4.6331 -1.4987 1.8112 0 CFG=1
M  V30 46 O 3.8351 1.6263 -0.8553 0
M  V30 47 C 5.5047 0.5291 0.5849 0 CFG=2
M  V30 48 C -2.4346 4.5916 4.3116 0
M  V30 49 C 5.6291 -0.3375 1.8503 0
M  V30 50 C 4.7012 -2.3003 3.1057 0
M  V30 51 N 6.4585 1.6675 0.5247 0
M  V30 52 O -1.9158 5.7703 3.6933 0
M  V30 53 C 7.8434 1.2372 0.3486 0
M  V30 54 C 6.3501 2.6274 1.6182 0
M  V30 55 C -0.4863 5.7665 3.6564 0
M  V30 56 C -0.0017 6.9011 2.7547 0
M  V30 57 O -0.1435 6.5117 1.3839 0
M  V30 58 C 0.2045 7.5656 0.4983 0
M  V30 59 H -1.2061 -1.1098 -3.6219 0
M  V30 60 H -5.7956 -0.1334 -1.8921 0
M  V30 61 H -1.6629 -1.8504 -0.6978 0
M  V30 62 H -2.1707 -3.2849 -3.7105 0
M  V30 63 H -3.4575 -2.1182 -4.0122 0
M  V30 64 H -3.3429 -2.9104 -2.4346 0
M  V30 65 H -4.7202 1.1132 -3.7859 0
M  V30 66 H -4.3975 2.426 -2.6795 0
M  V30 67 H -0.3018 0.2994 -1.2781 0
M  V30 68 H -4.373 -0.8046 0.1471 0
M  V30 69 H -4.8635 2.5224 1.2578 0
M  V30 70 H -7.2249 1.5466 -0.3517 0
M  V30 71 H -6.9303 -0.1535 0.0656 0
M  V30 72 H -6.6926 1.0841 1.2746 0
M  V30 73 H -6.4847 2.7372 -3.9856 0
M  V30 74 H -7.161 1.2515 -3.3059 0
M  V30 75 H -6.8735 2.6589 -2.2698 0
M  V30 76 H -1.7843 -3.9551 -0.6948 0
M  V30 77 H 1.2469 -1.8122 0.2666 0
M  V30 78 H 1.9187 0.1194 -2.1783 0
M  V30 79 H 1.8372 -1.6492 -2.2259 0
M  V30 80 H 0.8375 -0.6649 -3.3023 0
M  V30 81 H -5.2308 4.2582 0.0415 0
M  V30 82 H -2.6232 1.8984 -0.5395 0
M  V30 83 H -1.2342 -6.1759 -1.2137 0
M  V30 84 H -1.2873 -5.2892 -2.7377 0
M  V30 85 H -1.6256 4.1302 -0.6944 0
M  V30 86 H -3.1347 4.0868 -1.5972 0
M  V30 87 H -3.065 4.8699 -0.0044 0
M  V30 88 H 1.8965 -3.8118 -0.6765 0
M  V30 89 H 3.3074 -0.9482 -0.3996 0
M  V30 90 H -0.3557 -2.7364 1.4356 0
M  V30 91 H -2.1777 0.0208 1.9815 0
M  V30 92 H -1.8147 0.2451 0.3226 0
M  V30 93 H -0.2762 -0.6418 3.6004 0
M  V30 94 H 1.0902 -1.5183 2.9557 0
M  V30 95 H 1.0643 0.2583 2.8699 0
M  V30 96 H -0.8211 1.8354 2.7087 0
M  V30 97 H 1.078 -6.7238 -0.1209 0
M  V30 98 H 1.6574 -5.3847 1.9299 0
M  V30 99 H 1.9807 -3.6657 1.7981 0
M  V30 100 H 3.1717 -4.8292 1.1782 0
M  V30 101 H 1.6419 -7.6678 -3.0314 0
M  V30 102 H -0.0025 -7.3756 -3.5839 0
M  V30 103 H 0.2623 -8.062 -1.9803 0
M  V30 104 H 3.7213 1.6464 1.1907 0
M  V30 105 H 1.0043 2.2131 1.3001 0
M  V30 106 H 0.0057 2.2781 -0.1746 0
M  V30 107 H -0.0291 3.5881 1.0051 0
M  V30 108 H 3.0894 -5.7824 -1.8522 0
M  V30 109 H 1.6429 -4.1526 -4.7993 0
M  V30 110 H 0.9366 -5.7698 -4.8632 0
M  V30 111 H -0.025 -4.3763 -4.2691 0
M  V30 112 H 4.8547 -2.1682 0.9705 0
M  V30 113 H 2.8849 1.8463 -0.8889 0
M  V30 114 H 5.7399 -0.1042 -0.2832 0
M  V30 115 H -3.5178 4.7112 4.427 0
M  V30 116 H -2.0067 4.482 5.3142 0
M  V30 117 H 6.6446 -0.7348 1.9548 0
M  V30 118 H 5.4195 0.2762 2.7354 0
M  V30 119 H 5.7016 -2.7137 3.2655 0
M  V30 120 H 4.4359 -1.6775 3.9675 0
M  V30 121 H 3.9837 -3.126 3.087 0
M  V30 122 H 8.2426 0.7328 1.2348 0
M  V30 123 H 7.9377 0.5608 -0.508 0
M  V30 124 H 8.4858 2.0987 0.1331 0
M  V30 125 H 6.6403 2.1994 2.5835 0
M  V30 126 H 5.3373 3.031 1.7059 0
M  V30 127 H 6.9999 3.4902 1.4296 0
M  V30 128 H -0.1145 4.8081 3.2786 0
M  V30 129 H -0.1201 5.9239 4.6766 0
M  V30 130 H -0.5855 7.8103 2.9385 0
M  V30 131 H 1.0583 7.0966 2.9496 0
M  V30 132 H 0.0906 7.2051 -0.5275 0
M  V30 133 H 1.2458 7.8659 0.6502 0
M  V30 134 H -0.4601 8.4229 0.6427 0
M  V30 END ATOM
M  V30 BEGIN BOND
M  V30 1 2 1 2
M  V30 2 1 2 3
M  V30 3 1 2 4
M  V30 4 1 3 5
M  V30 5 1 4 6
M  V30 6 1 4 7
M  V30 7 1 5 8
M  V30 8 1 5 9
M  V30 9 1 6 10
M  V30 10 1 6 11
M  V30 11 1 8 12
M  V30 12 1 8 13
M  V30 13 1 8 14
M  V30 14 1 9 15
M  V30 15 1 10 16
M  V30 16 1 11 17
M  V30 17 1 11 18
M  V30 18 1 13 19
M  V30 19 1 13 20
M  V30 20 1 16 21
M  V30 21 1 16 22
M  V30 22 1 17 23
M  V30 23 1 17 24
M  V30 24 1 20 25
M  V30 25 1 20 26
M  V30 26 1 21 27
M  V30 27 1 22 28
M  V30 28 1 23 29
M  V30 29 1 24 30
M  V30 30 1 24 31
M  V30 31 1 24 32
M  V30 32 2 25 33
M  V30 33 1 25 34
M  V30 34 1 27 35
M  V30 35 1 27 36
M  V30 36 1 28 37
M  V30 37 1 28 38
M  V30 38 1 29 39
M  V30 39 1 29 40
M  V30 40 1 33 41
M  V30 41 1 34 42
M  V30 42 1 35 43
M  V30 43 1 37 44
M  V30 44 1 39 45
M  V30 45 1 40 46
M  V30 46 1 40 47
M  V30 47 1 41 48
M  V30 48 1 45 49
M  V30 49 1 45 50
M  V30 50 1 47 51
M  V30 51 1 48 52
M  V30 52 1 51 53
M  V30 53 1 51 54
M  V30 54 1 52 55
M  V30 55 1 55 56
M  V30 56 1 56 57
M  V30 57 1 57 58
M  V30 58 1 28 35
M  V30 59 1 31 34
M  V30 60 1 47 49
M  V30 61 1 4 59
M  V30 62 1 5 60
M  V30 63 1 6 61
M  V30 64 1 7 62
M  V30 65 1 7 63
M  V30 66 1 7 64
M  V30 67 1 9 65
M  V30 68 1 9 66
M  V30 69 1 11 67
M  V30 70 1 12 68
M  V30 71 1 13 69
M  V30 72 1 14 70
M  V30 73 1 14 71
M  V30 74 1 14 72
M  V30 75 1 15 73
M  V30 76 1 15 74
M  V30 77 1 15 75
M  V30 78 1 16 76
M  V30 79 1 17 77
M  V30 80 1 18 78
M  V30 81 1 18 79
M  V30 82 1 18 80
M  V30 83 1 19 81
M  V30 84 1 20 82
M  V30 85 1 22 83
M  V30 86 1 22 84
M  V30 87 1 26 85
M  V30 88 1 26 86
M  V30 89 1 26 87
M  V30 90 1 27 88
M  V30 91 1 29 89
M  V30 92 1 30 90
M  V30 93 1 31 91
M  V30 94 1 31 92
M  V30 95 1 32 93
M  V30 96 1 32 94
M  V30 97 1 32 95
M  V30 98 1 34 96
M  V30 99 1 35 97
M  V30 100 1 36 98
M  V30 101 1 36 99
M  V30 102 1 36 100
M  V30 103 1 38 101
M  V30 104 1 38 102
M  V30 105 1 38 103
M  V30 106 1 40 104
M  V30 107 1 42 105
M  V30 108 1 42 106
M  V30 109 1 42 107
M  V30 110 1 43 108
M  V30 111 1 44 109
M  V30 112 1 44 110
M  V30 113 1 44 111
M  V30 114 1 45 112
M  V30 115 1 46 113
M  V30 116 1 47 114
M  V30 117 1 48 115
M  V30 118 1 48 116
M  V30 119 1 49 117
M  V30 120 1 49 118
M  V30 121 1 50 119
M  V30 122 1 50 120
M  V30 123 1 50 121
M  V30 124 1 53 122
M  V30 125 1 53 123
M  V30 126 1 53 124
M  V30 127 1 54 125
M  V30 128 1 54 126
M  V30 129 1 54 127
M  V30 130 1 55 128
M  V30 131 1 55 129
M  V30 132 1 56 130
M  V30 133 1 56 131
M  V30 134 1 58 132
M  V30 135 1 58 133
M  V30 136 1 58 134
M  V30 END BOND
M  V30 BEGIN COLLECTION
M  V30 MDLV30/STEABS ATOMS=(18 4 5 6 8 11 13 16 17 20 24 27 28 29 34 35 40 45 47)
M  V30 END COLLECTION
M  V30 END CTAB
M  END
>  <level_0>
1682

>  <index>
1682

>  <NO.>
1683

>  <Name>
roxithromycin

>  <SMILES>
CC[C@H]1OC(=O)[C@H](C)[C@@H](O[C@H]2C[C@@](C)(OC)[C@@H](O)[C@H](C)O2)[C@H](C)[C@@H](O[C@@H]2O[C@H](C)C[C@H](N(C)C)[C@H]2O)[C@](C)(O)C[C@@H](C)/C(=N\OCOCCOC)[C@H](C)[C@@H](O)[C@]1(C)O

>  <logBB>


>  <Class>
-1

>  <MW>
836.52

>  <nHBAcc>
17

>  <nHBDon>
5

>  <SLogP>
2.21

>  <TopoPSA>
216.89

>  <MMFF94 Energy>
267.42

$$$$
CC[C@H]1OC(=O)[C@H](C)[C@@H](O[C@H]2C[C@@](C)(OC)[C@@H](O)[C@H](C)O2)[C@H](C)[C@@H](O[C@@H]2O[C@H](C)C[C@H](N(C)C)[C@H]2O)[C@](C)(O)C[C@@H](C)C(=O)[C@H](C)[C@@H](O)[C@]1(C)O
Actelion Java MolfileCreator 2.0

  0  0  0  0  0  0              0 V3000
M  V30 BEGIN CTAB
M  V30 COUNTS 118 120 0 0 0
M  V30 BEGIN ATOM
M  V30 1 O -1.1873 1.5041 -0.7914 0
M  V30 2 C -1.3184 1.8186 0.3855 0
M  V30 3 O -2.5267 2.0981 0.9811 0
M  V30 4 C -0.1658 1.9418 1.3694 0 CFG=1
M  V30 5 C -3.6758 1.7938 0.1558 0 CFG=1
M  V30 6 C 1.0967 1.1684 0.8381 0 CFG=1
M  V30 7 C 0.0593 3.4153 1.7035 0
M  V30 8 C -4.9822 1.5947 1.0126 0 CFG=1
M  V30 9 C -3.8114 2.8913 -0.9404 0
M  V30 10 O 2.2241 2.0518 0.707 0
M  V30 11 C 1.4723 -0.0234 1.7921 0 CFG=1
M  V30 12 O -6.0719 1.3013 0.1094 0
M  V30 13 C -4.9864 0.4223 2.0736 0 CFG=2
M  V30 14 C -5.3497 2.8973 1.7665 0
M  V30 15 C -4.2794 2.3437 -2.2833 0
M  V30 16 C 2.3279 2.6275 -0.5979 0 CFG=2
M  V30 17 C 0.413 -1.1759 1.6829 0 CFG=1
M  V30 18 C 2.9082 -0.5239 1.605 0
M  V30 19 O -4.4026 0.8338 3.321 0
M  V30 20 C -4.5245 -1.0304 1.715 0 CFG=2
M  V30 21 O 2.7792 1.697 -1.5775 0
M  V30 22 C 3.2043 3.8813 -0.565 0
M  V30 23 O 0.8509 -2.2709 0.8485 0
M  V30 24 C 0.0061 -1.8132 3.0614 0 CFG=2
M  V30 25 C -3.0415 -1.2467 2.033 0
M  V30 26 C -4.9281 -1.4865 0.3179 0
M  V30 27 C 4.1463 1.3078 -1.4165 0 CFG=2
M  V30 28 C 4.7059 3.5739 -0.4342 0 CFG=2
M  V30 29 C 0.756 -2.0594 -0.5627 0 CFG=2
M  V30 30 O 1.1514 -2.5729 3.5396 0
M  V30 31 C -1.1587 -2.8477 2.9344 0
M  V30 32 C -0.2544 -0.8217 4.2136 0
M  V30 33 O -2.3502 -0.2573 2.2867 0
M  V30 34 C -2.4056 -2.6466 2.0158 0 CFG=1
M  V30 35 C 5.084 2.5239 -1.5126 0 CFG=1
M  V30 36 C 4.4497 0.276 -2.499 0
M  V30 37 O 5.079 2.974 0.8261 0
M  V30 38 C 5.5337 4.8522 -0.6539 0
M  V30 39 O -0.6051 -1.9219 -0.9608 0
M  V30 40 C 1.3976 -3.2926 -1.2371 0 CFG=2
M  V30 41 C -3.4003 -3.7535 2.4031 0
M  V30 42 O 6.4471 2.1208 -1.3333 0
M  V30 43 C 4.7869 3.7058 2.0069 0
M  V30 44 C -0.7139 -1.6637 -2.3625 0 CFG=1
M  V30 45 O 2.7694 -3.4014 -0.8243 0
M  V30 46 C 1.2822 -3.1606 -2.78 0 CFG=2
M  V30 47 C -0.18 -2.8572 -3.1595 0
M  V30 48 C -2.1848 -1.4255 -2.6748 0
M  V30 49 N 1.8841 -4.3004 -3.52 0
M  V30 50 C 2.1022 -4.0038 -4.9334 0
M  V30 51 C 1.2009 -5.5784 -3.3562 0
M  V30 52 H -0.5038 1.4549 2.288 0
M  V30 53 H -3.472 0.8479 -0.3501 0
M  V30 54 H 0.8996 0.7309 -0.1423 0
M  V30 55 H -0.8273 3.8387 2.1895 0
M  V30 56 H 0.9003 3.5403 2.393 0
M  V30 57 H 0.2415 4.0166 0.8079 0
M  V30 58 H -2.8528 3.3983 -1.1016 0
M  V30 59 H -4.4923 3.6878 -0.6314 0
M  V30 60 H 1.4535 0.4109 2.7961 0
M  V30 61 H -6.4068 2.1399 -0.2537 0
M  V30 62 H -6.0514 0.292 2.3208 0
M  V30 63 H -5.6456 3.7044 1.0903 0
M  V30 64 H -6.2235 2.7348 2.4096 0
M  V30 65 H -4.5252 3.2552 2.3912 0
M  V30 66 H -4.3528 3.157 -3.0127 0
M  V30 67 H -3.5674 1.6106 -2.6741 0
M  V30 68 H -5.2601 1.8674 -2.2171 0
M  V30 69 H 1.3297 2.9477 -0.9176 0
M  V30 70 H -0.4801 -0.7663 1.2202 0
M  V30 71 H 3.6297 0.2626 1.8501 0
M  V30 72 H 3.1212 -1.3662 2.2702 0
M  V30 73 H 3.0997 -0.8472 0.5797 0
M  V30 74 H -3.4368 0.8996 3.1572 0
M  V30 75 H -5.0461 -1.6718 2.4394 0
M  V30 76 H 2.8683 4.5413 0.2416 0
M  V30 77 H 3.0498 4.4195 -1.5102 0
M  V30 78 H -4.6685 -2.5312 0.1332 0
M  V30 79 H -6.0103 -1.3938 0.1805 0
M  V30 80 H -4.4339 -0.9211 -0.4711 0
M  V30 81 H 4.2775 0.8099 -0.4514 0
M  V30 82 H 1.3302 -1.169 -0.8323 0
M  V30 83 H 0.8784 -3.064 4.3326 0
M  V30 84 H -0.7055 -3.8006 2.6184 0
M  V30 85 H -1.5164 -3.0623 3.9523 0
M  V30 86 H -0.918 0.0025 3.9642 0
M  V30 87 H 0.6819 -0.3926 4.5888 0
M  V30 88 H -0.6854 -1.3384 5.08 0
M  V30 89 H -2.0986 -2.8211 0.9788 0
M  V30 90 H 4.9935 2.9724 -2.51 0
M  V30 91 H 5.4702 -0.1093 -2.4165 0
M  V30 92 H 3.7549 -0.5675 -2.4233 0
M  V30 93 H 4.3147 0.7055 -3.4978 0
M  V30 94 H 6.5947 4.6791 -0.4428 0
M  V30 95 H 5.438 5.2198 -1.6813 0
M  V30 96 H 5.2058 5.6579 0.0118 0
M  V30 97 H 0.8803 -4.1939 -0.8877 0
M  V30 98 H -4.2338 -3.8363 1.704 0
M  V30 99 H -3.8225 -3.5712 3.3979 0
M  V30 100 H -2.9089 -4.7329 2.4187 0
M  V30 101 H 6.5416 1.9845 -0.368 0
M  V30 102 H 5.1451 3.1203 2.8587 0
M  V30 103 H 5.3074 4.6662 2.0206 0
M  V30 104 H 3.7122 3.852 2.1352 0
M  V30 105 H -0.1509 -0.7537 -2.6064 0
M  V30 106 H 2.7451 -3.3536 0.1518 0
M  V30 107 H 1.8868 -2.2802 -3.0433 0
M  V30 108 H -0.2703 -2.6475 -4.231 0
M  V30 109 H -0.803 -3.7328 -2.9382 0
M  V30 110 H -2.3387 -1.2151 -3.7374 0
M  V30 111 H -2.7932 -2.2927 -2.3944 0
M  V30 112 H -2.5626 -0.5793 -2.0947 0
M  V30 113 H 1.1651 -3.9137 -5.4929 0
M  V30 114 H 2.6706 -3.0752 -5.0561 0
M  V30 115 H 2.6995 -4.7946 -5.4014 0
M  V30 116 H 0.2039 -5.5831 -3.8094 0
M  V30 117 H 1.1061 -5.8565 -2.3026 0
M  V30 118 H 1.7821 -6.3804 -3.8262 0
M  V30 END ATOM
M  V30 BEGIN BOND
M  V30 1 2 1 2
M  V30 2 1 2 3
M  V30 3 1 2 4
M  V30 4 1 3 5
M  V30 5 1 4 6
M  V30 6 1 4 7
M  V30 7 1 5 8
M  V30 8 1 5 9
M  V30 9 1 6 10
M  V30 10 1 6 11
M  V30 11 1 8 12
M  V30 12 1 8 13
M  V30 13 1 8 14
M  V30 14 1 9 15
M  V30 15 1 10 16
M  V30 16 1 11 17
M  V30 17 1 11 18
M  V30 18 1 13 19
M  V30 19 1 13 20
M  V30 20 1 16 21
M  V30 21 1 16 22
M  V30 22 1 17 23
M  V30 23 1 17 24
M  V30 24 1 20 25
M  V30 25 1 20 26
M  V30 26 1 21 27
M  V30 27 1 22 28
M  V30 28 1 23 29
M  V30 29 1 24 30
M  V30 30 1 24 31
M  V30 31 1 24 32
M  V30 32 2 25 33
M  V30 33 1 25 34
M  V30 34 1 27 35
M  V30 35 1 27 36
M  V30 36 1 28 37
M  V30 37 1 28 38
M  V30 38 1 29 39
M  V30 39 1 29 40
M  V30 40 1 34 41
M  V30 41 1 35 42
M  V30 42 1 37 43
M  V30 43 1 39 44
M  V30 44 1 40 45
M  V30 45 1 40 46
M  V30 46 1 44 47
M  V30 47 1 44 48
M  V30 48 1 46 49
M  V30 49 1 49 50
M  V30 50 1 49 51
M  V30 51 1 28 35
M  V30 52 1 31 34
M  V30 53 1 46 47
M  V30 54 1 4 52
M  V30 55 1 5 53
M  V30 56 1 6 54
M  V30 57 1 7 55
M  V30 58 1 7 56
M  V30 59 1 7 57
M  V30 60 1 9 58
M  V30 61 1 9 59
M  V30 62 1 11 60
M  V30 63 1 12 61
M  V30 64 1 13 62
M  V30 65 1 14 63
M  V30 66 1 14 64
M  V30 67 1 14 65
M  V30 68 1 15 66
M  V30 69 1 15 67
M  V30 70 1 15 68
M  V30 71 1 16 69
M  V30 72 1 17 70
M  V30 73 1 18 71
M  V30 74 1 18 72
M  V30 75 1 18 73
M  V30 76 1 19 74
M  V30 77 1 20 75
M  V30 78 1 22 76
M  V30 79 1 22 77
M  V30 80 1 26 78
M  V30 81 1 26 79
M  V30 82 1 26 80
M  V30 83 1 27 81
M  V30 84 1 29 82
M  V30 85 1 30 83
M  V30 86 1 31 84
M  V30 87 1 31 85
M  V30 88 1 32 86
M  V30 89 1 32 87
M  V30 90 1 32 88
M  V30 91 1 34 89
M  V30 92 1 35 90
M  V30 93 1 36 91
M  V30 94 1 36 92
M  V30 95 1 36 93
M  V30 96 1 38 94
M  V30 97 1 38 95
M  V30 98 1 38 96
M  V30 99 1 40 97
M  V30 100 1 41 98
M  V30 101 1 41 99
M  V30 102 1 41 100
M  V30 103 1 42 101
M  V30 104 1 43 102
M  V30 105 1 43 103
M  V30 106 1 43 104
M  V30 107 1 44 105
M  V30 108 1 45 106
M  V30 109 1 46 107
M  V30 110 1 47 108
M  V30 111 1 47 109
M  V30 112 1 48 110
M  V30 113 1 48 111
M  V30 114 1 48 112
M  V30 115 1 50 113
M  V30 116 1 50 114
M  V30 117 1 50 115
M  V30 118 1 51 116
M  V30 119 1 51 117
M  V30 120 1 51 118
M  V30 END BOND
M  V30 BEGIN COLLECTION
M  V30 MDLV30/STEABS ATOMS=(18 4 5 6 8 11 13 16 17 20 24 27 28 29 34 35 40 44 46)
M  V30 END COLLECTION
M  V30 END CTAB
M  END
>  <level_0>
1683

>  <index>
1683

>  <NO.>
1684

>  <Name>
erythromycin

>  <SMILES>
CC[C@H]1OC(=O)[C@H](C)[C@@H](O[C@H]2C[C@@](C)(OC)[C@@H](O)[C@H](C)O2)[C@H](C)[C@@H](O[C@@H]2O[C@H](C)C[C@H](N(C)C)[C@H]2O)[C@](C)(O)C[C@@H](C)C(=O)[C@H](C)[C@@H](O)[C@]1(C)O

>  <logBB>


>  <Class>
-1

>  <MW>
733.46

>  <nHBAcc>
14

>  <nHBDon>
5

>  <SLogP>
1.79

>  <TopoPSA>
193.91

>  <MMFF94 Energy>
226.39

$$$$
CC[C@H]1OC(=O)[C@H](C)[C@@H](O[C@H]2C[C@@](C)(OC)[C@@H](O)[C@H](C)O2)[C@H](C)[C@@H](O[C@@H]2O[C@H](C)C[C@H](N(C)C)[C@H]2O)[C@](C)(O)C[C@@H](C)[C@@H]2N[C@@H](COCCOC)O[C@H]([C@H]2C)[C@]1(C)O
Actelion Java MolfileCreator 2.0

  0  0  0  0  0  0              0 V3000
M  V30 BEGIN CTAB
M  V30 COUNTS 136 139 0 0 0
M  V30 BEGIN ATOM
M  V30 1 O -2.217 0.5538 -0.9496 0
M  V30 2 C -1.9968 -0.5033 -0.3731 0
M  V30 3 O -2.2072 -0.7345 0.9461 0
M  V30 4 C -1.5807 -1.7639 -1.1234 0 CFG=1
M  V30 5 C -2.9563 0.1686 1.812 0 CFG=1
M  V30 6 C -0.0944 -1.9015 -1.5669 0 CFG=1
M  V30 7 C -2.1144 -3.0363 -0.4417 0
M  V30 8 C -2.1283 1.3536 2.4312 0 CFG=1
M  V30 9 C -4.3274 0.5788 1.2269 0
M  V30 10 O 0.1845 -1.2266 -2.8123 0
M  V30 11 C 1.0809 -1.5913 -0.5813 0 CFG=1
M  V30 12 O -2.9382 1.9297 3.4803 0
M  V30 13 C -0.8093 0.8139 3.0658 0 CFG=2
M  V30 14 C -1.8508 2.4752 1.4352 0
M  V30 15 C -5.2009 -0.6183 0.8725 0
M  V30 16 C -0.2964 -1.8906 -3.9824 0 CFG=2
M  V30 17 C 1.6847 -0.1368 -0.6707 0 CFG=1
M  V30 18 C 0.8191 -2.1802 0.7991 0
M  V30 19 O -1.173 -0.0098 4.1892 0
M  V30 20 C 0.2312 1.8407 3.5542 0 CFG=2
M  V30 21 O 0.1705 -3.2322 -4.0991 0
M  V30 22 C 0.0238 -1.0887 -5.2486 0
M  V30 23 O 0.6274 0.8375 -0.6934 0
M  V30 24 C 2.8833 0.1904 0.3392 0 CFG=2
M  V30 25 C -0.0576 -0.7396 4.7149 0 CFG=1
M  V30 26 C 1.4742 1.0497 4.0482 0 CFG=1
M  V30 27 C -0.2921 2.7659 4.6706 0
M  V30 28 C 1.5786 -3.3205 -4.3301 0 CFG=2
M  V30 29 C 1.4945 -1.1865 -5.699 0 CFG=2
M  V30 30 C 0.9499 2.061 -1.3914 0 CFG=2
M  V30 31 O 3.5592 -1.0181 0.7087 0
M  V30 32 C 2.45 0.998 1.6111 0
M  V30 33 C 3.9768 1.0029 -0.3937 0
M  V30 34 N 1.0307 0.1496 5.1315 0
M  V30 35 C -0.5675 -1.5577 5.9251 0
M  V30 36 C 2.3336 0.2704 2.9713 0 CFG=1
M  V30 37 C 1.9399 -2.6726 -5.674 0 CFG=1
M  V30 38 C 1.9468 -4.8012 -4.3056 0
M  V30 39 O 2.403 -0.5042 -4.8012 0
M  V30 40 C 1.6468 -0.648 -7.135 0
M  V30 41 O 1.4433 3.0212 -0.4586 0
M  V30 42 C -0.3041 2.6225 -2.1125 0 CFG=2
M  V30 43 O -1.3896 -2.6434 5.4658 0
M  V30 44 C 3.7318 -0.0082 3.5591 0
M  V30 45 O 3.3531 -2.7539 -5.9002 0
M  V30 46 C 2.3731 0.9156 -4.8296 0
M  V30 47 C 1.8631 4.2352 -1.0815 0 CFG=1
M  V30 48 O -0.7816 1.673 -3.0712 0
M  V30 49 C 0.0439 3.9701 -2.7995 0 CFG=2
M  V30 50 C -1.9409 -3.3766 6.5588 0
M  V30 51 C 0.6808 4.9166 -1.7655 0
M  V30 52 C 2.4559 5.1234 0.0042 0
M  V30 53 N -1.041 4.6991 -3.5105 0
M  V30 54 C -2.8137 -4.5044 6.0202 0
M  V30 55 C -2.2988 4.7691 -2.764 0
M  V30 56 C -1.2944 4.1415 -4.8411 0
M  V30 57 O -3.3518 -5.2503 7.1115 0
M  V30 58 C -4.1852 -6.3085 6.6574 0
M  V30 59 H -2.1903 -1.6988 -2.034 0
M  V30 60 H -3.2161 -0.4749 2.6648 0
M  V30 61 H 0.0359 -2.9738 -1.7675 0
M  V30 62 H -1.8952 -3.9256 -1.0418 0
M  V30 63 H -3.2033 -2.982 -0.332 0
M  V30 64 H -1.7061 -3.1885 0.5596 0
M  V30 65 H -4.2107 1.1878 0.3261 0
M  V30 66 H -4.8691 1.1936 1.955 0
M  V30 67 H 1.9084 -2.2086 -0.9694 0
M  V30 68 H -2.7933 1.3506 4.2572 0
M  V30 69 H -0.3318 0.1875 2.3109 0
M  V30 70 H -1.4948 3.3805 1.9384 0
M  V30 71 H -1.0953 2.1745 0.7134 0
M  V30 72 H -2.7534 2.7854 0.9011 0
M  V30 73 H -6.1887 -0.2774 0.546 0
M  V30 74 H -4.7679 -1.2038 0.0577 0
M  V30 75 H -5.3392 -1.275 1.7371 0
M  V30 76 H -1.387 -1.946 -3.9192 0
M  V30 77 H 2.1353 -0.1334 -1.6738 0
M  V30 78 H 1.7263 -2.2646 1.3962 0
M  V30 79 H 0.0876 -1.6095 1.362 0
M  V30 80 H 0.4598 -3.2106 0.7109 0
M  V30 81 H 0.5279 2.5085 2.7413 0
M  V30 82 H -0.2712 -0.0458 -5.1024 0
M  V30 83 H -0.6004 -1.4944 -6.0564 0
M  V30 84 H 0.2715 -1.4529 3.9513 0
M  V30 85 H 2.1491 1.7856 4.5062 0
M  V30 86 H -0.7238 2.2129 5.5104 0
M  V30 87 H 0.5183 3.3904 5.0623 0
M  V30 88 H -1.0575 3.448 4.2899 0
M  V30 89 H 2.122 -2.8382 -3.508 0
M  V30 90 H 1.7163 1.8526 -2.1449 0
M  V30 91 H 3.9322 -1.4211 -0.0944 0
M  V30 92 H 1.4889 1.4439 1.379 0
M  V30 93 H 3.1236 1.8542 1.7543 0
M  V30 94 H 4.8653 1.1064 0.2415 0
M  V30 95 H 4.3142 0.4819 -1.2975 0
M  V30 96 H 3.6566 2.0033 -0.6795 0
M  V30 97 H 1.8104 -0.4123 5.4639 0
M  V30 98 H -1.1584 -0.9171 6.5911 0
M  V30 99 H 0.277 -1.9833 6.4796 0
M  V30 100 H 1.863 -0.6927 2.7867 0
M  V30 101 H 1.4368 -3.2193 -6.4815 0
M  V30 102 H 3.0225 -4.9528 -4.4335 0
M  V30 103 H 1.6451 -5.2509 -3.3531 0
M  V30 104 H 1.4176 -5.3496 -5.0926 0
M  V30 105 H 2.7001 -0.6015 -7.4324 0
M  V30 106 H 1.1106 -1.2743 -7.8561 0
M  V30 107 H 1.2437 0.3669 -7.2242 0
M  V30 108 H -1.0995 2.7929 -1.3824 0
M  V30 109 H 4.3714 -0.5661 2.8728 0
M  V30 110 H 3.6698 -0.5991 4.4778 0
M  V30 111 H 4.2482 0.9283 3.7969 0
M  V30 112 H 3.7306 -2.0064 -5.3933 0
M  V30 113 H 3.0084 1.2786 -4.0173 0
M  V30 114 H 2.7941 1.2947 -5.7645 0
M  V30 115 H 1.3661 1.3072 -4.6812 0
M  V30 116 H 2.6483 4.0086 -1.8137 0
M  V30 117 H -1.1835 0.9708 -2.5159 0
M  V30 118 H 0.8245 3.7637 -3.5463 0
M  V30 119 H -2.5424 -2.7142 7.1929 0
M  V30 120 H -1.1357 -3.7912 7.1769 0
M  V30 121 H 1.0141 5.8428 -2.2498 0
M  V30 122 H -0.0606 5.1904 -1.0047 0
M  V30 123 H 2.8104 6.0731 -0.4071 0
M  V30 124 H 1.7191 5.3313 0.7881 0
M  V30 125 H 3.2968 4.618 0.4917 0
M  V30 126 H -3.6255 -4.0869 5.4124 0
M  V30 127 H -2.217 -5.1604 5.3753 0
M  V30 128 H -2.7779 3.7905 -2.6502 0
M  V30 129 H -2.154 5.2021 -1.7696 0
M  V30 130 H -3.0061 5.4275 -3.2818 0
M  V30 131 H -1.7335 3.1399 -4.8115 0
M  V30 132 H -0.3721 4.1001 -5.4308 0
M  V30 133 H -1.9823 4.7905 -5.3954 0
M  V30 134 H -4.567 -6.8448 7.5302 0
M  V30 135 H -3.6138 -7.0079 6.0397 0
M  V30 136 H -5.0341 -5.912 6.092 0
M  V30 END ATOM
M  V30 BEGIN BOND
M  V30 1 2 1 2
M  V30 2 1 2 3
M  V30 3 1 2 4
M  V30 4 1 3 5
M  V30 5 1 4 6
M  V30 6 1 4 7
M  V30 7 1 5 8
M  V30 8 1 5 9
M  V30 9 1 6 10
M  V30 10 1 6 11
M  V30 11 1 8 12
M  V30 12 1 8 13
M  V30 13 1 8 14
M  V30 14 1 9 15
M  V30 15 1 10 16
M  V30 16 1 11 17
M  V30 17 1 11 18
M  V30 18 1 13 19
M  V30 19 1 13 20
M  V30 20 1 16 21
M  V30 21 1 16 22
M  V30 22 1 17 23
M  V30 23 1 17 24
M  V30 24 1 19 25
M  V30 25 1 20 26
M  V30 26 1 20 27
M  V30 27 1 21 28
M  V30 28 1 22 29
M  V30 29 1 23 30
M  V30 30 1 24 31
M  V30 31 1 24 32
M  V30 32 1 24 33
M  V30 33 1 25 34
M  V30 34 1 25 35
M  V30 35 1 26 36
M  V30 36 1 28 37
M  V30 37 1 28 38
M  V30 38 1 29 39
M  V30 39 1 29 40
M  V30 40 1 30 41
M  V30 41 1 30 42
M  V30 42 1 35 43
M  V30 43 1 36 44
M  V30 44 1 37 45
M  V30 45 1 39 46
M  V30 46 1 41 47
M  V30 47 1 42 48
M  V30 48 1 42 49
M  V30 49 1 43 50
M  V30 50 1 47 51
M  V30 51 1 47 52
M  V30 52 1 49 53
M  V30 53 1 50 54
M  V30 54 1 53 55
M  V30 55 1 53 56
M  V30 56 1 54 57
M  V30 57 1 57 58
M  V30 58 1 26 34
M  V30 59 1 29 37
M  V30 60 1 32 36
M  V30 61 1 49 51
M  V30 62 1 4 59
M  V30 63 1 5 60
M  V30 64 1 6 61
M  V30 65 1 7 62
M  V30 66 1 7 63
M  V30 67 1 7 64
M  V30 68 1 9 65
M  V30 69 1 9 66
M  V30 70 1 11 67
M  V30 71 1 12 68
M  V30 72 1 13 69
M  V30 73 1 14 70
M  V30 74 1 14 71
M  V30 75 1 14 72
M  V30 76 1 15 73
M  V30 77 1 15 74
M  V30 78 1 15 75
M  V30 79 1 16 76
M  V30 80 1 17 77
M  V30 81 1 18 78
M  V30 82 1 18 79
M  V30 83 1 18 80
M  V30 84 1 20 81
M  V30 85 1 22 82
M  V30 86 1 22 83
M  V30 87 1 25 84
M  V30 88 1 26 85
M  V30 89 1 27 86
M  V30 90 1 27 87
M  V30 91 1 27 88
M  V30 92 1 28 89
M  V30 93 1 30 90
M  V30 94 1 31 91
M  V30 95 1 32 92
M  V30 96 1 32 93
M  V30 97 1 33 94
M  V30 98 1 33 95
M  V30 99 1 33 96
M  V30 100 1 34 97
M  V30 101 1 35 98
M  V30 102 1 35 99
M  V30 103 1 36 100
M  V30 104 1 37 101
M  V30 105 1 38 102
M  V30 106 1 38 103
M  V30 107 1 38 104
M  V30 108 1 40 105
M  V30 109 1 40 106
M  V30 110 1 40 107
M  V30 111 1 42 108
M  V30 112 1 44 109
M  V30 113 1 44 110
M  V30 114 1 44 111
M  V30 115 1 45 112
M  V30 116 1 46 113
M  V30 117 1 46 114
M  V30 118 1 46 115
M  V30 119 1 47 116
M  V30 120 1 48 117
M  V30 121 1 49 118
M  V30 122 1 50 119
M  V30 123 1 50 120
M  V30 124 1 51 121
M  V30 125 1 51 122
M  V30 126 1 52 123
M  V30 127 1 52 124
M  V30 128 1 52 125
M  V30 129 1 54 126
M  V30 130 1 54 127
M  V30 131 1 55 128
M  V30 132 1 55 129
M  V30 133 1 55 130
M  V30 134 1 56 131
M  V30 135 1 56 132
M  V30 136 1 56 133
M  V30 137 1 58 134
M  V30 138 1 58 135
M  V30 139 1 58 136
M  V30 END BOND
M  V30 BEGIN COLLECTION
M  V30 MDLV30/STEABS ATOMS=(20 4 5 6 8 11 13 16 17 20 24 25 26 28 29 30 36 37 42 47 49)
M  V30 END COLLECTION
M  V30 END CTAB
M  END
>  <level_0>
1684

>  <index>
1684

>  <NO.>
1685

>  <Name>
dirithromycin

>  <SMILES>
CC[C@H]1OC(=O)[C@H](C)[C@@H](O[C@H]2C[C@@](C)(OC)[C@@H](O)[C@H](C)O2)[C@H](C)[C@@H](O[C@@H]2O[C@H](C)C[C@H](N(C)C)[C@H]2O)[C@](C)(O)C[C@@H](C)[C@@H]2N[C@@H](COCCOC)O[C@H]([C@H]2C)[C@]1(C)O

>  <logBB>


>  <Class>
-1

>  <MW>
834.55

>  <nHBAcc>
16

>  <nHBDon>
5

>  <SLogP>
2.2

>  <TopoPSA>
196.33

>  <MMFF94 Energy>
256.73

$$$$
CC[C@H]1OC(=O)[C@H](C)[C@@H](O[C@H]2C[C@@](C)(OC)[C@@H](O)[C@H](C)O2)[C@H](C)[C@@H](O[C@@H]2O[C@H](C)C[C@H](N(C)C)[C@H]2O)[C@](C)(O)C[C@](C)(F)C(=O)[C@H](C)[C@@H](O)[C@]1(C)O
Actelion Java MolfileCreator 2.0

  0  0  0  0  0  0              0 V3000
M  V30 BEGIN CTAB
M  V30 COUNTS 118 120 0 0 0
M  V30 BEGIN ATOM
M  V30 1 F 1.8233 -3.8082 1.4267 0
M  V30 2 C 1.8235 -2.5217 1.9089 0 CFG=2
M  V30 3 C 2.165 -2.5719 3.4245 0
M  V30 4 C 0.3994 -1.97 1.7509 0
M  V30 5 C 2.9067 -1.7963 1.1263 0
M  V30 6 O 2.1217 -3.6469 4.0327 0
M  V30 7 C 2.5444 -1.2704 4.162 0 CFG=1
M  V30 8 C -0.324 -1.9551 0.3773 0 CFG=1
M  V30 9 C 1.3141 -0.6745 4.8837 0 CFG=1
M  V30 10 C 3.7369 -1.5968 5.0705 0
M  V30 11 O -1.72 -2.0908 0.7206 0
M  V30 12 C -0.1487 -0.6237 -0.4638 0 CFG=2
M  V30 13 C -0.0104 -3.2009 -0.4602 0
M  V30 14 O 1.1107 -1.3879 6.1188 0
M  V30 15 C 1.2935 0.8551 5.2325 0 CFG=2
M  V30 16 O 1.194 -0.5836 -0.9802 0
M  V30 17 C -0.3919 0.7358 0.2957 0 CFG=2
M  V30 18 O 0.0511 1.0083 5.9968 0
M  V30 19 C 1.1928 1.8524 4.0296 0 CFG=2
M  V30 20 C 2.4018 1.2767 6.2083 0
M  V30 21 C 1.2655 -0.5168 -2.4183 0 CFG=2
M  V30 22 C -1.7588 0.8369 1.037 0 CFG=2
M  V30 23 C -0.2068 1.9315 -0.6614 0
M  V30 24 O 0.0353 1.4897 3.2269 0
M  V30 25 C 2.4247 1.9385 3.1128 0
M  V30 26 O 0.7688 -1.7126 -3.0054 0
M  V30 27 C 2.7538 -0.3025 -2.7737 0 CFG=2
M  V30 28 O -2.7799 0.972 0.0261 0
M  V30 29 C -1.9317 2.0682 1.968 0 CFG=2
M  V30 30 C -0.7333 2.5164 2.7779 0
M  V30 31 C 2.4928 3.2333 2.3093 0
M  V30 32 C 0.8231 -1.6792 -4.432 0 CFG=1
M  V30 33 O 3.2041 0.9364 -2.2008 0
M  V30 34 C 2.9386 -0.3065 -4.3144 0 CFG=2
M  V30 35 C -3.8312 0.0165 0.0503 0 CFG=2
M  V30 36 C -3.0904 1.8693 2.9518 0
M  V30 37 O -0.5307 3.6973 3.0402 0
M  V30 38 C 2.2742 -1.5639 -4.9042 0
M  V30 39 C 0.1895 -2.9641 -4.9499 0
M  V30 40 N 4.3477 -0.0972 -4.7373 0
M  V30 41 O -3.5846 -1.0388 -0.8817 0
M  V30 42 C -5.1778 0.6896 -0.2322 0
M  V30 43 C 4.4635 0.2736 -6.1461 0
M  V30 44 C 5.2603 -1.1906 -4.4172 0
M  V30 45 C -3.6093 -0.6063 -2.2489 0 CFG=2
M  V30 46 C -5.3291 1.1705 -1.6857 0 CFG=2
M  V30 47 C -4.9754 -0.0088 -2.6273 0 CFG=1
M  V30 48 C -3.2858 -1.8251 -3.108 0
M  V30 49 O -4.4177 2.2313 -2.0524 0
M  V30 50 C -6.7761 1.6202 -1.9532 0
M  V30 51 O -4.9534 0.4487 -3.9855 0
M  V30 52 C -4.5148 3.4491 -1.328 0
M  V30 53 H 0.3602 -0.9662 2.176 0
M  V30 54 H -0.2285 -2.5664 2.4316 0
M  V30 55 H 2.9136 -2.1151 0.0806 0
M  V30 56 H 2.7912 -0.7111 1.1611 0
M  V30 57 H 3.8997 -2.0389 1.5218 0
M  V30 58 H 2.9087 -0.5795 3.4087 0
M  V30 59 H 0.4097 -0.8875 4.3064 0
M  V30 60 H 4.5294 -2.0903 4.4953 0
M  V30 61 H 3.4636 -2.277 5.8841 0
M  V30 62 H 4.1751 -0.7005 5.5109 0
M  V30 63 H -2.2459 -2.0802 -0.1071 0
M  V30 64 H -0.866 -0.6623 -1.2915 0
M  V30 65 H -0.654 -3.2463 -1.3455 0
M  V30 66 H 1.0293 -3.2384 -0.7929 0
M  V30 67 H -0.2277 -4.1138 0.1067 0
M  V30 68 H 0.3704 -0.922 6.5606 0
M  V30 69 H 0.4255 0.8228 1.0136 0
M  V30 70 H -0.0416 1.9477 6.2401 0
M  V30 71 H 1.0262 2.8409 4.4789 0
M  V30 72 H 3.3947 1.2597 5.7577 0
M  V30 73 H 2.4135 0.6382 7.0986 0
M  V30 74 H 2.225 2.2954 6.5748 0
M  V30 75 H 0.6722 0.3411 -2.7573 0
M  V30 76 H -1.9093 -0.0491 1.6557 0
M  V30 77 H -0.8766 1.8627 -1.5247 0
M  V30 78 H -0.3989 2.8844 -0.1596 0
M  V30 79 H 0.8211 1.9838 -1.0311 0
M  V30 80 H 2.4066 1.1259 2.3845 0
M  V30 81 H 3.3503 1.8639 3.689 0
M  V30 82 H 3.3437 -1.1051 -2.3159 0
M  V30 83 H -2.1977 2.9271 1.3354 0
M  V30 84 H 3.432 3.2743 1.7478 0
M  V30 85 H 1.6774 3.2996 1.5842 0
M  V30 86 H 2.4535 4.1084 2.9652 0
M  V30 87 H 0.2326 -0.8271 -4.7922 0
M  V30 88 H 3.0127 0.8636 -1.2485 0
M  V30 89 H 2.3825 0.5708 -4.6769 0
M  V30 90 H -3.9039 -0.4402 1.0439 0
M  V30 91 H -4.0378 1.7142 2.4302 0
M  V30 92 H -2.9112 1.0058 3.6023 0
M  V30 93 H -3.2111 2.7455 3.5991 0
M  V30 94 H 2.2998 -1.5426 -5.9992 0
M  V30 95 H 2.8222 -2.4556 -4.5753 0
M  V30 96 H 0.1971 -2.9991 -6.0435 0
M  V30 97 H 0.7158 -3.8447 -4.5652 0
M  V30 98 H -0.8467 -3.0458 -4.6074 0
M  V30 99 H -5.3254 1.5206 0.4642 0
M  V30 100 H -5.968 -0.0464 -0.0312 0
M  V30 101 H 4.1963 -0.5471 -6.8199 0
M  V30 102 H 3.8266 1.1344 -6.378 0
M  V30 103 H 5.4904 0.5793 -6.377 0
M  V30 104 H 5.0402 -2.1014 -4.9839 0
M  V30 105 H 5.2467 -1.4319 -3.3505 0
M  V30 106 H 6.2924 -0.8995 -4.6452 0
M  V30 107 H -2.8112 0.1278 -2.4149 0
M  V30 108 H -5.7446 -0.7872 -2.5454 0
M  V30 109 H -4.0423 -2.607 -2.9793 0
M  V30 110 H -3.2223 -1.5678 -4.1693 0
M  V30 111 H -2.3308 -2.2616 -2.8003 0
M  V30 112 H -7.0999 2.3719 -1.2251 0
M  V30 113 H -6.8731 2.0763 -2.9445 0
M  V30 114 H -7.4757 0.78 -1.8861 0
M  V30 115 H -4.5282 1.3302 -3.9454 0
M  V30 116 H -3.7485 4.1277 -1.7138 0
M  V30 117 H -5.4867 3.9248 -1.4791 0
M  V30 118 H -4.322 3.3028 -0.2633 0
M  V30 END ATOM
M  V30 BEGIN BOND
M  V30 1 1 1 2
M  V30 2 1 2 3
M  V30 3 1 2 4
M  V30 4 1 2 5
M  V30 5 2 3 6
M  V30 6 1 3 7
M  V30 7 1 4 8
M  V30 8 1 7 9
M  V30 9 1 7 10
M  V30 10 1 8 11
M  V30 11 1 8 12
M  V30 12 1 8 13
M  V30 13 1 9 14
M  V30 14 1 9 15
M  V30 15 1 12 16
M  V30 16 1 12 17
M  V30 17 1 15 18
M  V30 18 1 15 19
M  V30 19 1 15 20
M  V30 20 1 16 21
M  V30 21 1 17 22
M  V30 22 1 17 23
M  V30 23 1 19 24
M  V30 24 1 19 25
M  V30 25 1 21 26
M  V30 26 1 21 27
M  V30 27 1 22 28
M  V30 28 1 22 29
M  V30 29 1 24 30
M  V30 30 1 25 31
M  V30 31 1 26 32
M  V30 32 1 27 33
M  V30 33 1 27 34
M  V30 34 1 28 35
M  V30 35 1 29 36
M  V30 36 2 30 37
M  V30 37 1 32 38
M  V30 38 1 32 39
M  V30 39 1 34 40
M  V30 40 1 35 41
M  V30 41 1 35 42
M  V30 42 1 40 43
M  V30 43 1 40 44
M  V30 44 1 41 45
M  V30 45 1 42 46
M  V30 46 1 45 47
M  V30 47 1 45 48
M  V30 48 1 46 49
M  V30 49 1 46 50
M  V30 50 1 47 51
M  V30 51 1 49 52
M  V30 52 1 29 30
M  V30 53 1 34 38
M  V30 54 1 46 47
M  V30 55 1 4 53
M  V30 56 1 4 54
M  V30 57 1 5 55
M  V30 58 1 5 56
M  V30 59 1 5 57
M  V30 60 1 7 58
M  V30 61 1 9 59
M  V30 62 1 10 60
M  V30 63 1 10 61
M  V30 64 1 10 62
M  V30 65 1 11 63
M  V30 66 1 12 64
M  V30 67 1 13 65
M  V30 68 1 13 66
M  V30 69 1 13 67
M  V30 70 1 14 68
M  V30 71 1 17 69
M  V30 72 1 18 70
M  V30 73 1 19 71
M  V30 74 1 20 72
M  V30 75 1 20 73
M  V30 76 1 20 74
M  V30 77 1 21 75
M  V30 78 1 22 76
M  V30 79 1 23 77
M  V30 80 1 23 78
M  V30 81 1 23 79
M  V30 82 1 25 80
M  V30 83 1 25 81
M  V30 84 1 27 82
M  V30 85 1 29 83
M  V30 86 1 31 84
M  V30 87 1 31 85
M  V30 88 1 31 86
M  V30 89 1 32 87
M  V30 90 1 33 88
M  V30 91 1 34 89
M  V30 92 1 35 90
M  V30 93 1 36 91
M  V30 94 1 36 92
M  V30 95 1 36 93
M  V30 96 1 38 94
M  V30 97 1 38 95
M  V30 98 1 39 96
M  V30 99 1 39 97
M  V30 100 1 39 98
M  V30 101 1 42 99
M  V30 102 1 42 100
M  V30 103 1 43 101
M  V30 104 1 43 102
M  V30 105 1 43 103
M  V30 106 1 44 104
M  V30 107 1 44 105
M  V30 108 1 44 106
M  V30 109 1 45 107
M  V30 110 1 47 108
M  V30 111 1 48 109
M  V30 112 1 48 110
M  V30 113 1 48 111
M  V30 114 1 50 112
M  V30 115 1 50 113
M  V30 116 1 50 114
M  V30 117 1 51 115
M  V30 118 1 52 116
M  V30 119 1 52 117
M  V30 120 1 52 118
M  V30 END BOND
M  V30 BEGIN COLLECTION
M  V30 MDLV30/STEABS ATOMS=(18 2 7 8 9 12 15 17 19 21 22 27 29 32 34 35 45 46 47)
M  V30 END COLLECTION
M  V30 END CTAB
M  END
>  <level_0>
1685

>  <index>
1685

>  <NO.>
1686

>  <Name>
flurithromycin

>  <SMILES>
CC[C@H]1OC(=O)[C@H](C)[C@@H](O[C@H]2C[C@@](C)(OC)[C@@H](O)[C@H](C)O2)[C@H](C)[C@@H](O[C@@H]2O[C@H](C)C[C@H](N(C)C)[C@H]2O)[C@](C)(O)C[C@](C)(F)C(=O)[C@H](C)[C@@H](O)[C@]1(C)O

>  <logBB>


>  <Class>
-1

>  <MW>
751.45

>  <nHBAcc>
14

>  <nHBDon>
5

>  <SLogP>
1.88

>  <TopoPSA>
193.91

>  <MMFF94 Energy>
227.65

$$$$
CC[C@H]1OC(=O)[C@H](C)[C@@H](O[C@H]2C[C@@](C)(OC)[C@@H](O)[C@H](C)O2)[C@H](C)[C@@H](O[C@@H]2O[C@H](C)C[C@H](N(C)C)[C@H]2O)[C@](C)(OC)C[C@@H](C)C(=O)[C@H](C)[C@@H](O)[C@]1(C)O
Actelion Java MolfileCreator 2.0

  0  0  0  0  0  0              0 V3000
M  V30 BEGIN CTAB
M  V30 COUNTS 121 123 0 0 0
M  V30 BEGIN ATOM
M  V30 1 O -3.3238 -2.2149 1.3443 0
M  V30 2 C -3.3678 -1.4255 0.4104 0
M  V30 3 O -3.7355 -1.7411 -0.8546 0
M  V30 4 C -3.031 0.0461 0.5595 0 CFG=1
M  V30 5 C -4.2888 -3.0449 -1.188 0 CFG=1
M  V30 6 C -1.6028 0.4281 0.0873 0 CFG=1
M  V30 7 C -4.1052 0.9015 -0.1264 0
M  V30 8 C -3.2205 -4.1934 -1.3383 0 CFG=1
M  V30 9 C -5.5272 -3.4145 -0.3379 0
M  V30 10 O -1.3988 1.767 0.5815 0
M  V30 11 C -0.4766 -0.5107 0.6465 0 CFG=1
M  V30 12 O -3.8806 -5.337 -1.9361 0
M  V30 13 C -2.1102 -3.7444 -2.3501 0 CFG=2
M  V30 14 C -2.6258 -4.6667 -0.007 0
M  V30 15 C -6.6211 -2.3551 -0.3965 0
M  V30 16 C -0.7574 2.6901 -0.2848 0 CFG=2
M  V30 17 C 0.9104 -0.3204 -0.0811 0 CFG=1
M  V30 18 C -0.3577 -0.3736 2.1744 0
M  V30 19 O -2.7389 -3.5452 -3.6266 0
M  V30 20 C -0.9021 -4.6986 -2.5006 0 CFG=2
M  V30 21 O 0.3829 3.2568 0.3673 0
M  V30 22 C -1.709 3.7861 -0.7833 0
M  V30 23 O 2.004 -0.58 0.8229 0
M  V30 24 C 1.1056 -1.2371 -1.3623 0 CFG=2
M  V30 25 C 0.3265 -3.9479 -3.0317 0
M  V30 26 C -1.1421 -5.9192 -3.3898 0
M  V30 27 C 0.0242 4.082 1.4875 0 CFG=2
M  V30 28 C -2.1066 4.7951 0.3196 0 CFG=2
M  V30 29 C 2.7424 0.609 1.163 0 CFG=2
M  V30 30 O -0.0769 -1.1636 -2.168 0
M  V30 31 C 1.2525 -2.7394 -0.9463 0
M  V30 32 C 2.3905 -0.8066 -2.1086 0
M  V30 33 O 0.396 -3.5618 -4.2022 0
M  V30 34 C 1.5237 -3.7333 -2.096 0 CFG=1
M  V30 35 C -0.7969 5.2875 0.9984 0 CFG=1
M  V30 36 C 1.3187 4.5232 2.1646 0
M  V30 37 O -3.0215 4.0906 1.1761 0
M  V30 38 C -2.8657 5.9596 -0.3403 0
M  V30 39 O 3.4169 1.1112 0.0135 0
M  V30 40 C 3.7609 0.222 2.2586 0 CFG=2
M  V30 41 C -0.0979 -0.2343 -3.2408 0
M  V30 42 C 2.0309 -5.0726 -1.5516 0
M  V30 43 O -1.0253 6.2253 2.0519 0
M  V30 44 C -3.383 4.6871 2.4099 0
M  V30 45 C 4.1319 2.3129 0.291 0 CFG=1
M  V30 46 O 3.0626 -0.2396 3.4256 0
M  V30 47 C 4.6626 1.4415 2.599 0 CFG=2
M  V30 48 C 5.2452 2.034 1.3015 0
M  V30 49 C 4.7011 2.8231 -1.0259 0
M  V30 50 N 5.6745 1.153 3.6494 0
M  V30 51 C 6.2503 2.3653 4.2266 0
M  V30 52 C 6.7236 0.2169 3.2599 0
M  V30 53 H -3.1295 0.2746 1.6296 0
M  V30 54 H -4.7009 -2.8925 -2.1953 0
M  V30 55 H -1.6027 0.4209 -1.0059 0
M  V30 56 H -5.1098 0.5701 0.1543 0
M  V30 57 H -4.0217 1.9501 0.1654 0
M  V30 58 H -4.0278 0.8464 -1.2176 0
M  V30 59 H -5.262 -3.5675 0.7117 0
M  V30 60 H -5.9537 -4.3579 -0.696 0
M  V30 61 H -0.7919 -1.5413 0.4646 0
M  V30 62 H -4.4 -5.7821 -1.2425 0
M  V30 63 H -1.7454 -2.7713 -2.0245 0
M  V30 64 H -1.8844 -3.9659 0.3848 0
M  V30 65 H -3.4009 -4.8226 0.7493 0
M  V30 66 H -2.146 -5.6464 -0.114 0
M  V30 67 H -7.5068 -2.7007 0.1465 0
M  V30 68 H -6.2968 -1.4188 0.0629 0
M  V30 69 H -6.9172 -2.1509 -1.4302 0
M  V30 70 H -0.3748 2.1777 -1.171 0
M  V30 71 H 0.9677 0.7135 -0.4257 0
M  V30 72 H -1.3203 -0.5308 2.6692 0
M  V30 73 H 0.3187 -1.1319 2.5804 0
M  V30 74 H 0.0106 0.6135 2.4683 0
M  V30 75 H -3.2897 -4.3396 -3.7738 0
M  V30 76 H -0.6215 -5.0684 -1.5139 0
M  V30 77 H -1.1982 4.3314 -1.588 0
M  V30 78 H -2.6053 3.3199 -1.2085 0
M  V30 79 H -0.2325 -6.5266 -3.4609 0
M  V30 80 H -1.9307 -6.5595 -2.9861 0
M  V30 81 H -1.4153 -5.6353 -4.4115 0
M  V30 82 H -0.5388 3.4918 2.2206 0
M  V30 83 H 2.0365 1.3524 1.5517 0
M  V30 84 H 2.0741 -2.8263 -0.224 0
M  V30 85 H 0.3457 -3.0684 -0.4287 0
M  V30 86 H 2.4704 -1.2687 -3.097 0
M  V30 87 H 2.4032 0.2745 -2.2855 0
M  V30 88 H 3.2908 -1.0649 -1.5414 0
M  V30 89 H 2.337 -3.3556 -2.725 0
M  V30 90 H -0.1999 5.814 0.2404 0
M  V30 91 H 1.8932 3.6497 2.489 0
M  V30 92 H 1.9553 5.081 1.469 0
M  V30 93 H 1.1259 5.1461 3.0431 0
M  V30 94 H -2.2498 6.4649 -1.0919 0
M  V30 95 H -3.1834 6.7111 0.3885 0
M  V30 96 H -3.7785 5.5982 -0.8281 0
M  V30 97 H 4.3692 -0.6129 1.8921 0
M  V30 98 H -1.1217 -0.185 -3.6226 0
M  V30 99 H 0.5455 -0.5705 -4.0577 0
M  V30 100 H 0.1921 0.765 -2.9083 0
M  V30 101 H 2.1046 -5.8197 -2.3491 0
M  V30 102 H 3.027 -4.9517 -1.1117 0
M  V30 103 H 1.3775 -5.4755 -0.7713 0
M  V30 104 H -1.3736 7.0413 1.6542 0
M  V30 105 H -4.2292 4.1247 2.8158 0
M  V30 106 H -2.5664 4.608 3.1316 0
M  V30 107 H -3.6981 5.726 2.2904 0
M  V30 108 H 3.4373 3.0648 0.6812 0
M  V30 109 H 2.4947 -0.9679 3.1143 0
M  V30 110 H 3.9847 2.19 3.0352 0
M  V30 111 H 5.7922 2.961 1.5053 0
M  V30 112 H 5.951 1.3207 0.8584 0
M  V30 113 H 5.2591 3.7537 -0.8849 0
M  V30 114 H 5.3639 2.0799 -1.4828 0
M  V30 115 H 3.8933 3.0055 -1.7434 0
M  V30 116 H 6.8865 2.9065 3.5185 0
M  V30 117 H 5.4647 3.0443 4.5765 0
M  V30 118 H 6.8574 2.1184 5.1051 0
M  V30 119 H 7.3848 0.6241 2.4879 0
M  V30 120 H 6.3105 -0.7299 2.9012 0
M  V30 121 H 7.3442 -0.0366 4.1275 0
M  V30 END ATOM
M  V30 BEGIN BOND
M  V30 1 2 1 2
M  V30 2 1 2 3
M  V30 3 1 2 4
M  V30 4 1 3 5
M  V30 5 1 4 6
M  V30 6 1 4 7
M  V30 7 1 5 8
M  V30 8 1 5 9
M  V30 9 1 6 10
M  V30 10 1 6 11
M  V30 11 1 8 12
M  V30 12 1 8 13
M  V30 13 1 8 14
M  V30 14 1 9 15
M  V30 15 1 10 16
M  V30 16 1 11 17
M  V30 17 1 11 18
M  V30 18 1 13 19
M  V30 19 1 13 20
M  V30 20 1 16 21
M  V30 21 1 16 22
M  V30 22 1 17 23
M  V30 23 1 17 24
M  V30 24 1 20 25
M  V30 25 1 20 26
M  V30 26 1 21 27
M  V30 27 1 22 28
M  V30 28 1 23 29
M  V30 29 1 24 30
M  V30 30 1 24 31
M  V30 31 1 24 32
M  V30 32 2 25 33
M  V30 33 1 25 34
M  V30 34 1 27 35
M  V30 35 1 27 36
M  V30 36 1 28 37
M  V30 37 1 28 38
M  V30 38 1 29 39
M  V30 39 1 29 40
M  V30 40 1 30 41
M  V30 41 1 34 42
M  V30 42 1 35 43
M  V30 43 1 37 44
M  V30 44 1 39 45
M  V30 45 1 40 46
M  V30 46 1 40 47
M  V30 47 1 45 48
M  V30 48 1 45 49
M  V30 49 1 47 50
M  V30 50 1 50 51
M  V30 51 1 50 52
M  V30 52 1 28 35
M  V30 53 1 31 34
M  V30 54 1 47 48
M  V30 55 1 4 53
M  V30 56 1 5 54
M  V30 57 1 6 55
M  V30 58 1 7 56
M  V30 59 1 7 57
M  V30 60 1 7 58
M  V30 61 1 9 59
M  V30 62 1 9 60
M  V30 63 1 11 61
M  V30 64 1 12 62
M  V30 65 1 13 63
M  V30 66 1 14 64
M  V30 67 1 14 65
M  V30 68 1 14 66
M  V30 69 1 15 67
M  V30 70 1 15 68
M  V30 71 1 15 69
M  V30 72 1 16 70
M  V30 73 1 17 71
M  V30 74 1 18 72
M  V30 75 1 18 73
M  V30 76 1 18 74
M  V30 77 1 19 75
M  V30 78 1 20 76
M  V30 79 1 22 77
M  V30 80 1 22 78
M  V30 81 1 26 79
M  V30 82 1 26 80
M  V30 83 1 26 81
M  V30 84 1 27 82
M  V30 85 1 29 83
M  V30 86 1 31 84
M  V30 87 1 31 85
M  V30 88 1 32 86
M  V30 89 1 32 87
M  V30 90 1 32 88
M  V30 91 1 34 89
M  V30 92 1 35 90
M  V30 93 1 36 91
M  V30 94 1 36 92
M  V30 95 1 36 93
M  V30 96 1 38 94
M  V30 97 1 38 95
M  V30 98 1 38 96
M  V30 99 1 40 97
M  V30 100 1 41 98
M  V30 101 1 41 99
M  V30 102 1 41 100
M  V30 103 1 42 101
M  V30 104 1 42 102
M  V30 105 1 42 103
M  V30 106 1 43 104
M  V30 107 1 44 105
M  V30 108 1 44 106
M  V30 109 1 44 107
M  V30 110 1 45 108
M  V30 111 1 46 109
M  V30 112 1 47 110
M  V30 113 1 48 111
M  V30 114 1 48 112
M  V30 115 1 49 113
M  V30 116 1 49 114
M  V30 117 1 49 115
M  V30 118 1 51 116
M  V30 119 1 51 117
M  V30 120 1 51 118
M  V30 121 1 52 119
M  V30 122 1 52 120
M  V30 123 1 52 121
M  V30 END BOND
M  V30 BEGIN COLLECTION
M  V30 MDLV30/STEABS ATOMS=(18 4 5 6 8 11 13 16 17 20 24 27 28 29 34 35 40 45 47)
M  V30 END COLLECTION
M  V30 END CTAB
M  END
>  <level_0>
1686

>  <index>
1686

>  <NO.>
1687

>  <Name>
clarithromycin

>  <SMILES>
CC[C@H]1OC(=O)[C@H](C)[C@@H](O[C@H]2C[C@@](C)(OC)[C@@H](O)[C@H](C)O2)[C@H](C)[C@@H](O[C@@H]2O[C@H](C)C[C@H](N(C)C)[C@H]2O)[C@](C)(OC)C[C@@H](C)C(=O)[C@H](C)[C@@H](O)[C@]1(C)O

>  <logBB>


>  <Class>
-1

>  <MW>
747.48

>  <nHBAcc>
14

>  <nHBDon>
4

>  <SLogP>
2.44

>  <TopoPSA>
182.91

>  <MMFF94 Energy>
225.19

$$$$
CCc1ccc2c(c1)N(CC(C)CN(C)C)c1ccccc1S2
Actelion Java MolfileCreator 2.0

  0  0  0  0  0  0              0 V3000
M  V30 BEGIN CTAB
M  V30 COUNTS 49 51 0 0 0
M  V30 BEGIN ATOM
M  V30 1 S -1.1192 3.1203 1.9993 0
M  V30 2 C -0.0029 2.6282 0.7009 0
M  V30 3 C -2.4927 2.0157 1.7375 0
M  V30 4 C -0.1459 1.4264 -0.0182 0
M  V30 5 C 1.0688 3.4979 0.4355 0
M  V30 6 C -2.413 0.8753 0.9132 0
M  V30 7 C -3.686 2.3334 2.4116 0
M  V30 8 N -1.2093 0.5224 0.251 0
M  V30 9 C 0.7999 1.1698 -1.0344 0
M  V30 10 C 1.9999 3.2056 -0.5581 0
M  V30 11 C -3.5977 0.1301 0.7396 0
M  V30 12 C -4.8266 1.5527 2.251 0
M  V30 13 C -0.9173 -0.9263 0.081 0
M  V30 14 C 1.873 2.0364 -1.3044 0
M  V30 15 C -4.7855 0.4561 1.4033 0
M  V30 16 C 0.1611 -1.4409 1.068 0 CFG=2
M  V30 17 C 2.849 1.7206 -2.4088 0
M  V30 18 C 0.5152 -2.916 0.7646 0
M  V30 19 C -0.3151 -1.3358 2.5237 0
M  V30 20 C 2.3716 2.247 -3.7536 0
M  V30 21 N 1.0339 -3.147 -0.5965 0
M  V30 22 C 1.0479 -4.5839 -0.8905 0
M  V30 23 C 2.3866 -2.6048 -0.76 0
M  V30 24 H 1.1796 4.4196 1.0032 0
M  V30 25 H -3.7334 3.2056 3.0605 0
M  V30 26 H 0.7047 0.2849 -1.6575 0
M  V30 27 H 2.8137 3.901 -0.749 0
M  V30 28 H -3.6345 -0.7047 0.046 0
M  V30 29 H -5.7451 1.8132 2.7698 0
M  V30 30 H -1.8033 -1.5532 0.2223 0
M  V30 31 H -0.6306 -1.1195 -0.9579 0
M  V30 32 H -5.6777 -0.1439 1.2437 0
M  V30 33 H 1.07 -0.8354 0.9887 0
M  V30 34 H 3.0003 0.6357 -2.4667 0
M  V30 35 H 3.8296 2.1504 -2.1702 0
M  V30 36 H -0.4015 -3.5067 0.9002 0
M  V30 37 H 1.2327 -3.2875 1.5091 0
M  V30 38 H -1.2593 -1.8701 2.6739 0
M  V30 39 H 0.4271 -1.7638 3.2062 0
M  V30 40 H -0.4605 -0.2931 2.8209 0
M  V30 41 H 3.0998 2.0058 -4.5344 0
M  V30 42 H 2.2448 3.3349 -3.7317 0
M  V30 43 H 1.4112 1.8027 -4.0366 0
M  V30 44 H 0.0351 -4.9985 -0.8332 0
M  V30 45 H 1.6902 -5.1415 -0.1991 0
M  V30 46 H 1.3997 -4.7647 -1.9125 0
M  V30 47 H 3.0965 -3.043 -0.0491 0
M  V30 48 H 2.3997 -1.5183 -0.6363 0
M  V30 49 H 2.7552 -2.797 -1.7743 0
M  V30 END ATOM
M  V30 BEGIN BOND
M  V30 1 1 1 2
M  V30 2 1 1 3
M  V30 3 2 2 4
M  V30 4 1 2 5
M  V30 5 2 3 6
M  V30 6 1 3 7
M  V30 7 1 4 8
M  V30 8 1 4 9
M  V30 9 2 5 10
M  V30 10 1 6 11
M  V30 11 2 7 12
M  V30 12 1 8 13
M  V30 13 2 9 14
M  V30 14 2 11 15
M  V30 15 1 13 16
M  V30 16 1 14 17
M  V30 17 1 16 18
M  V30 18 1 16 19
M  V30 19 1 17 20
M  V30 20 1 18 21
M  V30 21 1 21 22
M  V30 22 1 21 23
M  V30 23 1 6 8
M  V30 24 1 10 14
M  V30 25 1 12 15
M  V30 26 1 5 24
M  V30 27 1 7 25
M  V30 28 1 9 26
M  V30 29 1 10 27
M  V30 30 1 11 28
M  V30 31 1 12 29
M  V30 32 1 13 30
M  V30 33 1 13 31
M  V30 34 1 15 32
M  V30 35 1 16 33
M  V30 36 1 17 34
M  V30 37 1 17 35
M  V30 38 1 18 36
M  V30 39 1 18 37
M  V30 40 1 19 38
M  V30 41 1 19 39
M  V30 42 1 19 40
M  V30 43 1 20 41
M  V30 44 1 20 42
M  V30 45 1 20 43
M  V30 46 1 22 44
M  V30 47 1 22 45
M  V30 48 1 22 46
M  V30 49 1 23 47
M  V30 50 1 23 48
M  V30 51 1 23 49
M  V30 END BOND
M  V30 BEGIN COLLECTION
M  V30 MDLV30/STERAC1 ATOMS=(1 16)
M  V30 END COLLECTION
M  V30 END CTAB
M  END
>  <level_0>
1700

>  <index>
1700

>  <NO.>
1701

>  <Name>
etymemazine

>  <SMILES>
CCc1ccc2c(c1)N(CC(C)CN(C)C)c1ccccc1S2

>  <logBB>


>  <Class>
1

>  <MW>
326.18

>  <nHBAcc>
3

>  <nHBDon>
0

>  <SLogP>
5.05

>  <TopoPSA>
6.48

>  <MMFF94 Energy>
77.879

$$$$
CN(C)C1C(=O)C(C(=O)NCN2CCN(C(=N)N=C(N)N)CC2)=C(O)C2(O)C(=O)C3=C(O)c4c(O)cccc4C(C)(O)C3CC12
Actelion Java MolfileCreator 2.0

  0  0  0  0  0  0              0 V3000
M  V30 BEGIN CTAB
M  V30 COUNTS 83 87 0 0 0
M  V30 BEGIN ATOM
M  V30 1 O -0.8773 -1.1964 -3.193 0
M  V30 2 C 0.0574 -1.8283 -2.6954 0
M  V30 3 C 1.1849 -2.2762 -3.5803 0
M  V30 4 C 0.1513 -2.2072 -1.1984 0
M  V30 5 C 0.9183 -2.5393 -4.8734 0
M  V30 6 C 2.5888 -2.3637 -3.0164 0
M  V30 7 O 0.0344 -3.626 -1.1075 0
M  V30 8 C -0.9789 -1.6077 -0.3761 0
M  V30 9 C 1.5427 -1.7201 -0.7662 0
M  V30 10 O -0.3539 -2.4886 -5.4052 0
M  V30 11 C 2.0066 -2.9213 -5.8086 0
M  V30 12 C 3.4295 -3.4683 -3.757 0
M  V30 13 C 2.6402 -2.5269 -1.4698 0
M  V30 14 O -2.2347 -2.0874 -0.7509 0
M  V30 15 C -0.7957 -0.7532 0.6572 0
M  V30 16 C 1.6648 -1.5537 0.7671 0
M  V30 17 C 1.8776 -2.837 -7.2129 0
M  V30 18 C 3.2277 -3.4068 -5.2745 0
M  V30 19 O 2.9998 -4.7654 -3.3191 0
M  V30 20 C 4.9085 -3.3484 -3.3359 0
M  V30 21 C 0.6113 -0.4715 1.0778 0
M  V30 22 C -1.9722 -0.181 1.3761 0
M  V30 23 N 1.4424 -2.6857 1.7035 0
M  V30 24 O 0.7629 -2.2794 -7.782 0
M  V30 25 C 2.8885 -3.2781 -8.0692 0
M  V30 26 C 4.2214 -3.8772 -6.1589 0
M  V30 27 O 0.9018 0.5633 1.6803 0
M  V30 28 O -3.1176 -0.5216 1.0798 0
M  V30 29 N -1.6973 0.7244 2.3574 0
M  V30 30 C 1.7112 -2.2789 3.0948 0
M  V30 31 C 2.2482 -3.8697 1.4077 0
M  V30 32 C 4.0538 -3.8127 -7.5403 0
M  V30 33 C -2.7216 1.3366 3.1403 0
M  V30 34 N -2.0686 2.3852 3.9079 0
M  V30 35 C -2.9394 2.7948 5.0382 0
M  V30 36 C -1.7909 3.5768 3.0576 0
M  V30 37 C -2.3354 3.957 5.8622 0
M  V30 38 C -1.1805 4.7398 3.8698 0
M  V30 39 N -2.073 5.101 4.9809 0
M  V30 40 C -2.987 6.1154 4.832 0
M  V30 41 N -3.3161 6.5362 3.5727 0
M  V30 42 N -3.5265 6.6807 5.8672 0
M  V30 43 C -4.2996 7.3364 3.3398 0
M  V30 44 N -4.5845 7.7095 2.0775 0
M  V30 45 N -5.1577 7.888 4.2165 0
M  V30 46 H 3.0468 -1.3869 -3.2395 0
M  V30 47 H -0.9247 -3.813 -1.1652 0
M  V30 48 H 1.6604 -0.6923 -1.1558 0
M  V30 49 H -0.9226 -1.9584 -4.8072 0
M  V30 50 H 3.6137 -2.1785 -1.1047 0
M  V30 51 H 2.5728 -3.5857 -1.2184 0
M  V30 52 H -2.9265 -1.6302 -0.2163 0
M  V30 53 H 2.6534 -1.1148 0.9642 0
M  V30 54 H 2.2749 -5.0541 -3.903 0
M  V30 55 H 5.5093 -4.1845 -3.71 0
M  V30 56 H 5.3536 -2.4114 -3.6871 0
M  V30 57 H 5.0272 -3.403 -2.249 0
M  V30 58 H 0.7525 -2.4668 -8.7325 0
M  V30 59 H 2.7813 -3.2083 -9.1474 0
M  V30 60 H 5.146 -4.3118 -5.7883 0
M  V30 61 H -0.7392 0.984 2.573 0
M  V30 62 H 1.5215 -3.1111 3.783 0
M  V30 63 H 1.0428 -1.4747 3.4183 0
M  V30 64 H 2.7476 -1.9495 3.2317 0
M  V30 65 H 2.1788 -4.6063 2.2178 0
M  V30 66 H 3.3069 -3.6266 1.2667 0
M  V30 67 H 1.868 -4.3932 0.5295 0
M  V30 68 H 4.8383 -4.1729 -8.2011 0
M  V30 69 H -3.5355 1.6978 2.5001 0
M  V30 70 H -3.1233 0.5513 3.7917 0
M  V30 71 H -3.084 1.9419 5.7123 0
M  V30 72 H -3.9288 3.0946 4.6662 0
M  V30 73 H -1.0811 3.3128 2.2652 0
M  V30 74 H -2.7141 3.9189 2.5714 0
M  V30 75 H -3.0201 4.2113 6.6784 0
M  V30 76 H -1.3951 3.6352 6.3268 0
M  V30 77 H -0.979 5.5974 3.2173 0
M  V30 78 H -0.2097 4.432 4.2791 0
M  V30 79 H -3.071 6.2715 6.6842 0
M  V30 80 H -5.4723 8.1205 1.8419 0
M  V30 81 H -4.0113 7.3311 1.3376 0
M  V30 82 H -4.9268 7.6781 5.1913 0
M  V30 83 H -5.6281 8.7553 4.0265 0
M  V30 END ATOM
M  V30 BEGIN BOND
M  V30 1 2 1 2
M  V30 2 1 2 3
M  V30 3 1 2 4
M  V30 4 2 3 5
M  V30 5 1 3 6
M  V30 6 1 4 7
M  V30 7 1 4 8
M  V30 8 1 4 9
M  V30 9 1 5 10
M  V30 10 1 5 11
M  V30 11 1 6 12
M  V30 12 1 6 13
M  V30 13 1 8 14
M  V30 14 2 8 15
M  V30 15 1 9 16
M  V30 16 2 11 17
M  V30 17 1 11 18
M  V30 18 1 12 19
M  V30 19 1 12 20
M  V30 20 1 15 21
M  V30 21 1 15 22
M  V30 22 1 16 23
M  V30 23 1 17 24
M  V30 24 1 17 25
M  V30 25 2 18 26
M  V30 26 2 21 27
M  V30 27 2 22 28
M  V30 28 1 22 29
M  V30 29 1 23 30
M  V30 30 1 23 31
M  V30 31 2 25 32
M  V30 32 1 29 33
M  V30 33 1 33 34
M  V30 34 1 34 35
M  V30 35 1 34 36
M  V30 36 1 35 37
M  V30 37 1 36 38
M  V30 38 1 37 39
M  V30 39 1 39 40
M  V30 40 1 40 41
M  V30 41 2 40 42
M  V30 42 2 41 43
M  V30 43 1 43 44
M  V30 44 1 43 45
M  V30 45 1 9 13
M  V30 46 1 12 18
M  V30 47 1 16 21
M  V30 48 1 26 32
M  V30 49 1 38 39
M  V30 50 1 6 46
M  V30 51 1 7 47
M  V30 52 1 9 48
M  V30 53 1 10 49
M  V30 54 1 13 50
M  V30 55 1 13 51
M  V30 56 1 14 52
M  V30 57 1 16 53
M  V30 58 1 19 54
M  V30 59 1 20 55
M  V30 60 1 20 56
M  V30 61 1 20 57
M  V30 62 1 24 58
M  V30 63 1 25 59
M  V30 64 1 26 60
M  V30 65 1 29 61
M  V30 66 1 30 62
M  V30 67 1 30 63
M  V30 68 1 30 64
M  V30 69 1 31 65
M  V30 70 1 31 66
M  V30 71 1 31 67
M  V30 72 1 32 68
M  V30 73 1 33 69
M  V30 74 1 33 70
M  V30 75 1 35 71
M  V30 76 1 35 72
M  V30 77 1 36 73
M  V30 78 1 36 74
M  V30 79 1 37 75
M  V30 80 1 37 76
M  V30 81 1 38 77
M  V30 82 1 38 78
M  V30 83 1 42 79
M  V30 84 1 44 80
M  V30 85 1 44 81
M  V30 86 1 45 82
M  V30 87 1 45 83
M  V30 END BOND
M  V30 END CTAB
M  END
>  <level_0>
1725

>  <index>
1725

>  <NO.>
1726

>  <Name>
guamecycline

>  <SMILES>
CN(C)C1C(=O)C(C(=O)NCN2CCN(C(=N)N=C(N)N)CC2)=C(O)C2(O)C(=O)C3=C(O)c4c(O)cccc4C(C)(O)C3CC12

>  <logBB>


>  <Class>
-1

>  <MW>
626.28

>  <nHBAcc>
11

>  <nHBDon>
9

>  <SLogP>
-1.96

>  <TopoPSA>
262.36

>  <MMFF94 Energy>
-76.088

$$$$
CN(C)C1C(=O)C(C(=O)NCN2CCN(CCO)CC2)=C(O)C2(O)C(=O)C3=C(O)c4c(O)cccc4C(C)(O)C3CC12
Actelion Java MolfileCreator 2.0

  0  0  0  0  0  0              0 V3000
M  V30 BEGIN CTAB
M  V30 COUNTS 80 84 0 0 0
M  V30 BEGIN ATOM
M  V30 1 O -2.0837 -0.7209 0.0 0
M  V30 2 C -1.0651 -1.3172 -0.3333 0
M  V30 3 C -1.0179 -2.8023 -0.2981 0
M  V30 4 C 0.2775 -0.6786 -0.7843 0
M  V30 5 C -1.1044 -3.4074 0.8928 0
M  V30 6 C -0.6198 -3.4482 -1.5891 0
M  V30 7 O 1.3154 -1.0876 0.1154 0
M  V30 8 C 0.2842 0.8313 -0.7265 0
M  V30 9 C 0.5782 -1.2769 -2.1875 0
M  V30 10 O -1.5198 -2.7429 2.0284 0
M  V30 11 C -0.6254 -4.8057 1.0385 0
M  V30 12 C -0.6994 -5.008 -1.5151 0
M  V30 13 C 0.7146 -2.8257 -2.075 0
M  V30 14 O -0.1034 1.3405 0.5122 0
M  V30 15 C 0.7377 1.6037 -1.7359 0
M  V30 16 C 1.7801 -0.5252 -2.8023 0
M  V30 17 C -0.3595 -5.3991 2.294 0
M  V30 18 C -0.3808 -5.5764 -0.1326 0
M  V30 19 O -2.0808 -5.3776 -1.7219 0
M  V30 20 C 0.0837 -5.657 -2.6714 0
M  V30 21 C 1.333 0.962 -2.9432 0
M  V30 22 C 0.7869 3.0772 -1.5859 0
M  V30 23 N 2.3006 -0.9906 -4.1049 0
M  V30 24 O -0.5201 -4.6925 3.4576 0
M  V30 25 C 0.1043 -6.713 2.402 0
M  V30 26 C 0.0698 -6.9077 0.0065 0
M  V30 27 O 1.4149 1.614 -3.9838 0
M  V30 28 O 1.8244 3.7085 -1.7309 0
M  V30 29 N -0.4055 3.6191 -1.1747 0
M  V30 30 C 3.3631 -1.9793 -4.0177 0
M  V30 31 C 1.3218 -1.2855 -5.1393 0
M  V30 32 C 0.3142 -7.4672 1.2579 0
M  V30 33 C -0.5317 4.9831 -0.7603 0
M  V30 34 N -0.7228 4.9074 0.6813 0
M  V30 35 C 0.5816 4.9594 1.3886 0
M  V30 36 C -1.542 6.0511 1.1468 0
M  V30 37 C 0.4132 4.9658 2.927 0
M  V30 38 C -1.719 6.0558 2.6832 0
M  V30 39 N -0.419 6.0931 3.3721 0
M  V30 40 C -0.543 6.1887 4.8369 0
M  V30 41 C -1.3 5.0756 5.5856 0
M  V30 42 O -2.7097 5.2183 5.436 0
M  V30 43 H -1.3791 -3.1442 -2.3273 0
M  V30 44 H 1.0948 -0.6906 0.9827 0
M  V30 45 H -0.2946 -1.0793 -2.8308 0
M  V30 46 H -2.0352 -1.9569 1.7619 0
M  V30 47 H 1.5415 -3.1025 -1.4101 0
M  V30 48 H 0.9439 -3.2361 -3.0582 0
M  V30 49 H -0.1517 2.3204 0.4964 0
M  V30 50 H 2.6187 -0.5028 -2.0927 0
M  V30 51 H -2.3266 -5.1649 -2.6367 0
M  V30 52 H 1.1662 -5.5969 -2.5184 0
M  V30 53 H -0.1899 -6.709 -2.8108 0
M  V30 54 H -0.1634 -5.1753 -3.6252 0
M  V30 55 H -0.4384 -5.2902 4.2153 0
M  V30 56 H 0.3087 -7.1584 3.3707 0
M  V30 57 H 0.218 -7.5445 -0.861 0
M  V30 58 H -1.2489 3.0621 -1.1444 0
M  V30 59 H 4.1583 -1.6404 -3.3445 0
M  V30 60 H 3.0141 -2.9544 -3.6693 0
M  V30 61 H 3.8337 -2.1232 -4.997 0
M  V30 62 H 0.5728 -0.4926 -5.2316 0
M  V30 63 H 1.8144 -1.3558 -6.1158 0
M  V30 64 H 0.7934 -2.2273 -4.9681 0
M  V30 65 H 0.6614 -8.494 1.3367 0
M  V30 66 H 0.3225 5.5966 -1.0671 0
M  V30 67 H -1.4255 5.3613 -1.2695 0
M  V30 68 H 1.1479 5.8527 1.0905 0
M  V30 69 H 1.1885 4.0872 1.122 0
M  V30 70 H -1.0932 7.0027 0.83 0
M  V30 71 H -2.539 5.9916 0.693 0
M  V30 72 H 1.4095 5.0413 3.3786 0
M  V30 73 H -0.0172 4.0059 3.2375 0
M  V30 74 H -2.3116 6.9362 2.9587 0
M  V30 75 H -2.2919 5.1638 2.9637 0
M  V30 76 H -1.0191 7.1502 5.0684 0
M  V30 77 H 0.4706 6.2501 5.2524 0
M  V30 78 H -1.0033 4.0785 5.2492 0
M  V30 79 H -1.0773 5.1503 6.6555 0
M  V30 80 H -3.1205 4.4716 5.9042 0
M  V30 END ATOM
M  V30 BEGIN BOND
M  V30 1 2 1 2
M  V30 2 1 2 3
M  V30 3 1 2 4
M  V30 4 2 3 5
M  V30 5 1 3 6
M  V30 6 1 4 7
M  V30 7 1 4 8
M  V30 8 1 4 9
M  V30 9 1 5 10
M  V30 10 1 5 11
M  V30 11 1 6 12
M  V30 12 1 6 13
M  V30 13 1 8 14
M  V30 14 2 8 15
M  V30 15 1 9 16
M  V30 16 2 11 17
M  V30 17 1 11 18
M  V30 18 1 12 19
M  V30 19 1 12 20
M  V30 20 1 15 21
M  V30 21 1 15 22
M  V30 22 1 16 23
M  V30 23 1 17 24
M  V30 24 1 17 25
M  V30 25 2 18 26
M  V30 26 2 21 27
M  V30 27 2 22 28
M  V30 28 1 22 29
M  V30 29 1 23 30
M  V30 30 1 23 31
M  V30 31 2 25 32
M  V30 32 1 29 33
M  V30 33 1 33 34
M  V30 34 1 34 35
M  V30 35 1 34 36
M  V30 36 1 35 37
M  V30 37 1 36 38
M  V30 38 1 37 39
M  V30 39 1 39 40
M  V30 40 1 40 41
M  V30 41 1 41 42
M  V30 42 1 9 13
M  V30 43 1 12 18
M  V30 44 1 16 21
M  V30 45 1 26 32
M  V30 46 1 38 39
M  V30 47 1 6 43
M  V30 48 1 7 44
M  V30 49 1 9 45
M  V30 50 1 10 46
M  V30 51 1 13 47
M  V30 52 1 13 48
M  V30 53 1 14 49
M  V30 54 1 16 50
M  V30 55 1 19 51
M  V30 56 1 20 52
M  V30 57 1 20 53
M  V30 58 1 20 54
M  V30 59 1 24 55
M  V30 60 1 25 56
M  V30 61 1 26 57
M  V30 62 1 29 58
M  V30 63 1 30 59
M  V30 64 1 30 60
M  V30 65 1 30 61
M  V30 66 1 31 62
M  V30 67 1 31 63
M  V30 68 1 31 64
M  V30 69 1 32 65
M  V30 70 1 33 66
M  V30 71 1 33 67
M  V30 72 1 35 68
M  V30 73 1 35 69
M  V30 74 1 36 70
M  V30 75 1 36 71
M  V30 76 1 37 72
M  V30 77 1 37 73
M  V30 78 1 38 74
M  V30 79 1 38 75
M  V30 80 1 40 76
M  V30 81 1 40 77
M  V30 82 1 41 78
M  V30 83 1 41 79
M  V30 84 1 42 80
M  V30 END BOND
M  V30 END CTAB
M  END
>  <level_0>
1726

>  <index>
1726

>  <NO.>
1727

>  <Name>
pipacycline

>  <SMILES>
CN(C)C1C(=O)C(C(=O)NCN2CCN(CCO)CC2)=C(O)C2(O)C(=O)C3=C(O)c4c(O)cccc4C(C)(O)C3CC12

>  <logBB>


>  <Class>
-1

>  <MW>
586.26

>  <nHBAcc>
12

>  <nHBDon>
7

>  <SLogP>
-1.17

>  <TopoPSA>
194.34

>  <MMFF94 Energy>
185.74

$$$$
CN(C)CC/C=C1/c2ccccc2Sc2ccc(Cl)cc21
Actelion Java MolfileCreator 2.0

  0  0  0  0  0  0              0 V3000
M  V30 BEGIN CTAB
M  V30 COUNTS 39 41 0 0 0
M  V30 BEGIN ATOM
M  V30 1 Cl -4.8247 -1.3066 1.2249 0
M  V30 2 C -3.4263 -1.8965 0.4144 0
M  V30 3 C -2.3401 -1.0482 0.2049 0
M  V30 4 C -3.3881 -3.2155 -0.0258 0
M  V30 5 C -1.1828 -1.5207 -0.4323 0
M  V30 6 C -2.264 -3.6817 -0.709 0
M  V30 7 C -1.17 -2.8346 -0.9389 0
M  V30 8 C 0.004 -0.6547 -0.645 0
M  V30 9 S 0.1801 -3.4717 -1.9294 0
M  V30 10 C 0.7396 -0.7152 -1.9392 0
M  V30 11 C 0.5768 0.0597 0.3518 0
M  V30 12 C 0.8974 -1.9607 -2.5758 0
M  V30 13 C 1.2727 0.4348 -2.5456 0
M  V30 14 C 0.2063 0.1663 1.8111 0
M  V30 15 C 1.6307 -2.0435 -3.7678 0
M  V30 16 C 1.9882 0.3431 -3.7406 0
M  V30 17 C -0.2651 1.5779 2.216 0
M  V30 18 C 2.1749 -0.896 -4.3464 0
M  V30 19 N 0.7099 2.6588 1.9653 0
M  V30 20 C 1.8831 2.5496 2.8349 0
M  V30 21 C 0.0709 3.9632 2.1604 0
M  V30 22 H -2.3985 -0.0152 0.5354 0
M  V30 23 H -4.2335 -3.8783 0.1383 0
M  V30 24 H -2.2571 -4.7039 -1.0815 0
M  V30 25 H 1.4916 0.6146 0.1368 0
M  V30 26 H 1.1332 1.4132 -2.0901 0
M  V30 27 H 1.0815 -0.1225 2.4052 0
M  V30 28 H -0.5665 -0.5555 2.0901 0
M  V30 29 H 1.771 -3.002 -4.2622 0
M  V30 30 H 2.4008 1.2401 -4.1956 0
M  V30 31 H -1.1805 1.7901 1.648 0
M  V30 32 H -0.5532 1.5645 3.2757 0
M  V30 33 H 2.7353 -0.9696 -5.2748 0
M  V30 34 H 2.446 1.634 2.6298 0
M  V30 35 H 1.6133 2.5626 3.8971 0
M  V30 36 H 2.5771 3.3774 2.6485 0
M  V30 37 H -0.2938 4.0959 3.1855 0
M  V30 38 H -0.7742 4.0854 1.4737 0
M  V30 39 H 0.7729 4.7741 1.9355 0
M  V30 END ATOM
M  V30 BEGIN BOND
M  V30 1 1 1 2
M  V30 2 2 2 3
M  V30 3 1 2 4
M  V30 4 1 3 5
M  V30 5 2 4 6
M  V30 6 2 5 7
M  V30 7 1 5 8
M  V30 8 1 7 9
M  V30 9 1 8 10
M  V30 10 2 8 11
M  V30 11 1 9 12
M  V30 12 1 10 13
M  V30 13 1 11 14
M  V30 14 1 12 15
M  V30 15 2 13 16
M  V30 16 1 14 17
M  V30 17 2 15 18
M  V30 18 1 17 19
M  V30 19 1 19 20
M  V30 20 1 19 21
M  V30 21 1 6 7
M  V30 22 2 10 12
M  V30 23 1 16 18
M  V30 24 1 3 22
M  V30 25 1 4 23
M  V30 26 1 6 24
M  V30 27 1 11 25
M  V30 28 1 13 26
M  V30 29 1 14 27
M  V30 30 1 14 28
M  V30 31 1 15 29
M  V30 32 1 16 30
M  V30 33 1 17 31
M  V30 34 1 17 32
M  V30 35 1 18 33
M  V30 36 1 20 34
M  V30 37 1 20 35
M  V30 38 1 20 36
M  V30 39 1 21 37
M  V30 40 1 21 38
M  V30 41 1 21 39
M  V30 END BOND
M  V30 END CTAB
M  END
>  <level_0>
1737

>  <index>
1737

>  <NO.>
1738

>  <Name>
chlorprothixene

>  <SMILES>
CN(C)CC/C=C1/c2ccccc2Sc2ccc(Cl)cc21

>  <logBB>


>  <Class>
1

>  <MW>
315.08

>  <nHBAcc>
2

>  <nHBDon>
0

>  <SLogP>
5.19

>  <TopoPSA>
3.24

>  <MMFF94 Energy>
74.726

$$$$
CN(C)CCO
Actelion Java MolfileCreator 2.0

  0  0  0  0  0  0              0 V3000
M  V30 BEGIN CTAB
M  V30 COUNTS 17 16 0 0 0
M  V30 BEGIN ATOM
M  V30 1 O 2.3402 0.6035 -0.3771 0
M  V30 2 C 1.4114 -0.1156 -1.1854 0
M  V30 3 C 0.321 -0.7742 -0.3228 0
M  V30 4 N -0.8196 0.1103 0.0059 0
M  V30 5 C -0.3995 1.2534 0.8209 0
M  V30 6 C -1.8473 -0.6525 0.7193 0
M  V30 7 H 2.9404 1.0652 -0.9868 0
M  V30 8 H 1.974 -0.8912 -1.7154 0
M  V30 9 H 0.9774 0.5617 -1.9288 0
M  V30 10 H -0.0725 -1.6177 -0.9041 0
M  V30 11 H 0.7683 -1.1797 0.5939 0
M  V30 12 H 0.2488 1.9267 0.2521 0
M  V30 13 H 0.1225 0.9436 1.7332 0
M  V30 14 H -1.2677 1.8557 1.1135 0
M  V30 15 H -1.4793 -1.0556 1.6699 0
M  V30 16 H -2.2046 -1.4866 0.1052 0
M  V30 17 H -2.7203 -0.0231 0.9262 0
M  V30 END ATOM
M  V30 BEGIN BOND
M  V30 1 1 1 2
M  V30 2 1 2 3
M  V30 3 1 3 4
M  V30 4 1 4 5
M  V30 5 1 4 6
M  V30 6 1 1 7
M  V30 7 1 2 8
M  V30 8 1 2 9
M  V30 9 1 3 10
M  V30 10 1 3 11
M  V30 11 1 5 12
M  V30 12 1 5 13
M  V30 13 1 5 14
M  V30 14 1 6 15
M  V30 15 1 6 16
M  V30 16 1 6 17
M  V30 END BOND
M  V30 END CTAB
M  END
>  <level_0>
1762

>  <index>
1762

>  <NO.>
1763

>  <Name>
deanol

>  <SMILES>
CN(C)CCO

>  <logBB>


>  <Class>
1

>  <MW>
89.08

>  <nHBAcc>
2

>  <nHBDon>
1

>  <SLogP>
-0.46

>  <TopoPSA>
23.47

>  <MMFF94 Energy>
27.114

$$$$
CN(C)CCn1cnc2c1c(=O)n(C)c(=O)n2C
Actelion Java MolfileCreator 2.0

  0  0  0  0  0  0              0 V3000
M  V30 BEGIN CTAB
M  V30 COUNTS 35 36 0 0 0
M  V30 BEGIN ATOM
M  V30 1 O -0.6272 -0.6272 -4.5546 0
M  V30 2 C -0.258 -0.3458 -3.4105 0
M  V30 3 N -0.7891 0.7679 -2.7308 0
M  V30 4 N 0.6964 -1.1052 -2.7373 0
M  V30 5 C -0.4305 1.1883 -1.4453 0
M  V30 6 C -1.7782 1.5456 -3.452 0
M  V30 7 C 1.0682 -0.7448 -1.4647 0
M  V30 8 C 1.2965 -2.2662 -3.3692 0
M  V30 9 O -0.8898 2.1888 -0.9034 0
M  V30 10 C 0.5356 0.3397 -0.8311 0
M  V30 11 N 1.9927 -1.3846 -0.6993 0
M  V30 12 N 1.1322 0.353 0.4023 0
M  V30 13 C 2.0308 -0.687 0.4157 0
M  V30 14 C 0.9465 1.3006 1.4827 0
M  V30 15 C 0.6007 0.6821 2.8536 0
M  V30 16 N -0.832 0.4255 3.099 0
M  V30 17 C -1.0458 0.0823 4.5091 0
M  V30 18 C -1.37 -0.6386 2.2506 0
M  V30 19 H -2.5962 0.8867 -3.7616 0
M  V30 20 H -1.3125 1.9593 -4.3525 0
M  V30 21 H -2.1894 2.364 -2.8562 0
M  V30 22 H 1.0872 -3.152 -2.7613 0
M  V30 23 H 2.3785 -2.1159 -3.4382 0
M  V30 24 H 0.9028 -2.4328 -4.3752 0
M  V30 25 H 2.6801 -0.8917 1.2577 0
M  V30 26 H 0.194 2.041 1.2035 0
M  V30 27 H 1.9005 1.837 1.5648 0
M  V30 28 H 1.1918 -0.2225 3.0417 0
M  V30 29 H 0.9283 1.4219 3.5968 0
M  V30 30 H -0.7053 0.8946 5.1608 0
M  V30 31 H -0.5183 -0.835 4.7945 0
M  V30 32 H -2.1133 -0.0533 4.7161 0
M  V30 33 H -0.7946 -1.5672 2.3354 0
M  V30 34 H -1.395 -0.3302 1.2029 0
M  V30 35 H -2.4108 -0.8571 2.5171 0
M  V30 END ATOM
M  V30 BEGIN BOND
M  V30 1 2 1 2
M  V30 2 1 2 3
M  V30 3 1 2 4
M  V30 4 1 3 5
M  V30 5 1 3 6
M  V30 6 1 4 7
M  V30 7 1 4 8
M  V30 8 2 5 9
M  V30 9 1 5 10
M  V30 10 1 7 11
M  V30 11 1 10 12
M  V30 12 2 11 13
M  V30 13 1 12 14
M  V30 14 1 14 15
M  V30 15 1 15 16
M  V30 16 1 16 17
M  V30 17 1 16 18
M  V30 18 2 7 10
M  V30 19 1 12 13
M  V30 20 1 6 19
M  V30 21 1 6 20
M  V30 22 1 6 21
M  V30 23 1 8 22
M  V30 24 1 8 23
M  V30 25 1 8 24
M  V30 26 1 13 25
M  V30 27 1 14 26
M  V30 28 1 14 27
M  V30 29 1 15 28
M  V30 30 1 15 29
M  V30 31 1 17 30
M  V30 32 1 17 31
M  V30 33 1 17 32
M  V30 34 1 18 33
M  V30 35 1 18 34
M  V30 36 1 18 35
M  V30 END BOND
M  V30 END CTAB
M  END
>  <level_0>
1774

>  <index>
1774

>  <NO.>
1775

>  <Name>
dimethazan

>  <SMILES>
CN(C)CCn1cnc2c1c(=O)n(C)c(=O)n2C

>  <logBB>


>  <Class>
1

>  <MW>
251.14

>  <nHBAcc>
4

>  <nHBDon>
0

>  <SLogP>
-1.0

>  <TopoPSA>
65.06

>  <MMFF94 Energy>
-100.77

$$$$
CN(C)CCn1nnnc1SCC1=C(C(=O)O)N2C(=O)[C@@H](NC(=O)Cc3csc(N)n3)[C@H]2SC1
Actelion Java MolfileCreator 2.0

  0  0  0  0  0  0              0 V3000
M  V30 BEGIN CTAB
M  V30 COUNTS 57 60 0 0 0
M  V30 BEGIN ATOM
M  V30 1 S 1.3995 2.141 -2.2234 0
M  V30 2 C 2.5333 2.891 -1.0209 0 CFG=1
M  V30 3 C -0.0893 2.729 -1.3571 0
M  V30 4 N 2.2616 2.283 0.2608 0
M  V30 5 C 3.9814 2.3222 -0.8905 0 CFG=1
M  V30 6 C -0.0909 2.4183 0.1289 0
M  V30 7 C 1.0379 2.1871 0.8411 0
M  V30 8 C 3.5007 1.8155 0.5095 0
M  V30 9 N 4.4012 1.2703 -1.8459 0
M  V30 10 C -1.4734 2.4077 0.7447 0
M  V30 11 C 0.9831 1.7804 2.2752 0
M  V30 12 O 3.9675 1.1793 1.4248 0
M  V30 13 C 4.8003 1.5745 -3.1284 0
M  V30 14 S -2.232 0.7712 0.526 0
M  V30 15 O 0.2652 0.929 2.7687 0
M  V30 16 O 1.8092 2.5392 3.0184 0
M  V30 17 O 4.9251 2.7342 -3.5181 0
M  V30 18 C 5.1355 0.3792 -4.0011 0
M  V30 19 C -3.4516 0.8762 1.7401 0
M  V30 20 C 4.0581 -0.6535 -3.9557 0
M  V30 21 N -4.2717 1.8836 1.9312 0
M  V30 22 N -3.6621 -0.0577 2.7129 0
M  V30 23 N 3.9333 -1.4233 -2.8034 0
M  V30 24 C 3.1253 -0.929 -4.936 0
M  V30 25 N -5.0029 1.5609 3.0494 0
M  V30 26 N -4.622 0.3921 3.5492 0
M  V30 27 C -2.9307 -1.2608 3.0264 0
M  V30 28 C 2.9296 -2.2579 -2.9216 0
M  V30 29 S 2.0751 -2.1742 -4.4072 0
M  V30 30 C -3.1836 -2.4292 2.0614 0
M  V30 31 N 2.579 -3.1179 -1.9617 0
M  V30 32 N -4.594 -2.8202 1.8878 0
M  V30 33 C -5.1791 -3.3601 3.1171 0
M  V30 34 C -4.723 -3.7986 0.8047 0
M  V30 35 H 2.4969 3.9866 -0.9904 0
M  V30 36 H -0.9385 2.2457 -1.8505 0
M  V30 37 H -0.1927 3.8094 -1.5063 0
M  V30 38 H 4.7514 3.0986 -0.7974 0
M  V30 39 H 4.2746 0.2815 -1.6204 0
M  V30 40 H -1.4337 2.6701 1.8075 0
M  V30 41 H -2.1049 3.1675 0.2696 0
M  V30 42 H 1.7602 2.1535 3.9168 0
M  V30 43 H 5.2866 0.7287 -5.0284 0
M  V30 44 H 6.0808 -0.049 -3.6499 0
M  V30 45 H 3.0061 -0.4662 -5.9053 0
M  V30 46 H -1.8652 -1.0042 3.0248 0
M  V30 47 H -3.1748 -1.5482 4.0557 0
M  V30 48 H -2.7807 -2.147 1.0812 0
M  V30 49 H -2.5911 -3.2912 2.3963 0
M  V30 50 H 1.8019 -3.7546 -2.07 0
M  V30 51 H 3.1026 -3.1542 -1.0971 0
M  V30 52 H -5.1975 -2.609 3.9127 0
M  V30 53 H -4.6337 -4.2383 3.4809 0
M  V30 54 H -6.2232 -3.6496 2.9508 0
M  V30 55 H -4.1737 -4.723 1.0166 0
M  V30 56 H -4.3497 -3.3823 -0.1375 0
M  V30 57 H -5.7758 -4.0521 0.6368 0
M  V30 END ATOM
M  V30 BEGIN BOND
M  V30 1 1 1 2
M  V30 2 1 1 3
M  V30 3 1 2 4
M  V30 4 1 2 5
M  V30 5 1 3 6
M  V30 6 1 4 7
M  V30 7 1 4 8
M  V30 8 1 5 9
M  V30 9 1 6 10
M  V30 10 1 7 11
M  V30 11 2 8 12
M  V30 12 1 9 13
M  V30 13 1 10 14
M  V30 14 2 11 15
M  V30 15 1 11 16
M  V30 16 2 13 17
M  V30 17 1 13 18
M  V30 18 1 14 19
M  V30 19 1 18 20
M  V30 20 2 19 21
M  V30 21 1 19 22
M  V30 22 1 20 23
M  V30 23 2 20 24
M  V30 24 1 21 25
M  V30 25 1 22 26
M  V30 26 1 22 27
M  V30 27 2 23 28
M  V30 28 1 24 29
M  V30 29 1 27 30
M  V30 30 1 28 31
M  V30 31 1 30 32
M  V30 32 1 32 33
M  V30 33 1 32 34
M  V30 34 1 5 8
M  V30 35 2 6 7
M  V30 36 2 25 26
M  V30 37 1 28 29
M  V30 38 1 2 35
M  V30 39 1 3 36
M  V30 40 1 3 37
M  V30 41 1 5 38
M  V30 42 1 9 39
M  V30 43 1 10 40
M  V30 44 1 10 41
M  V30 45 1 16 42
M  V30 46 1 18 43
M  V30 47 1 18 44
M  V30 48 1 24 45
M  V30 49 1 27 46
M  V30 50 1 27 47
M  V30 51 1 30 48
M  V30 52 1 30 49
M  V30 53 1 31 50
M  V30 54 1 31 51
M  V30 55 1 33 52
M  V30 56 1 33 53
M  V30 57 1 33 54
M  V30 58 1 34 55
M  V30 59 1 34 56
M  V30 60 1 34 57
M  V30 END BOND
M  V30 BEGIN COLLECTION
M  V30 MDLV30/STEABS ATOMS=(2 2 5)
M  V30 END COLLECTION
M  V30 END CTAB
M  END
>  <level_0>
1775

>  <index>
1775

>  <NO.>
1776

>  <Name>
cefotiam

>  <SMILES>
CN(C)CCn1nnnc1SCC1=C(C(=O)O)N2C(=O)[C@@H](NC(=O)Cc3csc(N)n3)[C@H]2SC1

>  <logBB>


>  <Class>
-1

>  <MW>
525.1

>  <nHBAcc>
12

>  <nHBDon>
3

>  <SLogP>
-0.65

>  <TopoPSA>
172.46

>  <MMFF94 Energy>
-24.816

$$$$
CN(C)[C@@H]1C(=O)C(C(=O)NC(C(=O)O)N2CCN(CCO)CC2)=C(O)[C@@]2(O)C(=O)C3=C(O)c4c(O)cccc4[C@@](C)(O)[C@H]3C[C@@H]12
Actelion Java MolfileCreator 2.0

  0  0  0  0  0  0              0 V3000
M  V30 BEGIN CTAB
M  V30 COUNTS 83 87 0 0 0
M  V30 BEGIN ATOM
M  V30 1 O -1.9284 1.2049 3.2961 0
M  V30 2 C -0.9968 1.7836 2.7399 0
M  V30 3 C 0.1118 2.3642 3.5494 0
M  V30 4 C -0.8135 1.9135 1.2004 0 CFG=2
M  V30 5 C 0.5029 1.7856 4.6951 0
M  V30 6 C 0.8411 3.4801 2.8721 0 CFG=1
M  V30 7 O -1.3104 3.1912 0.7826 0
M  V30 8 C -1.6171 0.8527 0.4806 0
M  V30 9 C 0.685 1.8487 0.8344 0 CFG=1
M  V30 10 O -0.214 0.7777 5.3022 0
M  V30 11 C 1.8117 2.1596 5.2965 0
M  V30 12 C 1.7613 4.2663 3.8478 0 CFG=1
M  V30 13 C 1.5352 2.9095 1.6161 0
M  V30 14 O -2.9297 1.2627 0.2298 0
M  V30 15 C -1.1167 -0.3342 0.0705 0
M  V30 16 C 1.2136 0.4039 1.031 0 CFG=1
M  V30 17 C 2.4817 1.3746 6.2584 0
M  V30 18 C 2.4521 3.3469 4.8512 0
M  V30 19 O 2.7419 4.9872 3.0906 0
M  V30 20 C 0.9477 5.3071 4.6438 0
M  V30 21 C 0.3178 -0.6596 0.3544 0
M  V30 22 C -2.0265 -1.2879 -0.6537 0
M  V30 23 N 2.6405 0.3152 0.6184 0
M  V30 24 O 1.9493 0.1893 6.6921 0
M  V30 25 C 3.7235 1.7554 6.7792 0
M  V30 26 C 3.7023 3.7152 5.3882 0
M  V30 27 O 0.7343 -1.7913 0.086 0
M  V30 28 O -3.1809 -0.9548 -0.9225 0
M  V30 29 N -1.4965 -2.5083 -0.9639 0
M  V30 30 C 3.3601 -0.7656 1.2927 0
M  V30 31 C 2.8785 0.2833 -0.822 0
M  V30 32 C 4.3322 2.9258 6.344 0
M  V30 33 C -2.2131 -3.5388 -1.6923 0
M  V30 34 N -2.448 -3.0515 -3.0706 0
M  V30 35 C -3.4684 -4.0389 -0.9013 0
M  V30 36 C -1.1607 -2.8773 -3.7843 0
M  V30 37 C -3.3041 -3.9557 -3.8662 0
M  V30 38 O -4.3411 -4.8018 -1.2948 0
M  V30 39 O -3.4813 -3.6763 0.4064 0
M  V30 40 C -1.3295 -2.4217 -5.2511 0
M  V30 41 C -3.4483 -3.5222 -5.345 0
M  V30 42 N -2.1476 -3.3702 -6.0284 0
M  V30 43 C -2.363 -2.9065 -7.4114 0
M  V30 44 C -1.1057 -2.9724 -8.2889 0
M  V30 45 O -1.434 -2.5924 -9.6234 0
M  V30 46 H 0.1028 4.2091 2.51 0
M  V30 47 H -2.2741 3.057 0.6529 0
M  V30 48 H 0.7721 2.1118 -0.2296 0
M  V30 49 H -1.0892 0.7034 4.8676 0
M  V30 50 H 1.7406 3.7447 0.933 0
M  V30 51 H 2.5163 2.5038 1.8873 0
M  V30 52 H -3.4104 0.5375 -0.2396 0
M  V30 53 H 1.162 0.1758 2.1037 0
M  V30 54 H 2.2732 5.6316 2.5337 0
M  V30 55 H 0.1781 4.8448 5.2711 0
M  V30 56 H 1.5998 5.9041 5.293 0
M  V30 57 H 0.4586 6.019 3.9687 0
M  V30 58 H 2.4762 -0.1547 7.4285 0
M  V30 59 H 4.2341 1.1422 7.5155 0
M  V30 60 H 4.1893 4.6309 5.0566 0
M  V30 61 H -0.5462 -2.7177 -0.6677 0
M  V30 62 H 3.0309 -1.761 0.9809 0
M  V30 63 H 3.2485 -0.6878 2.3799 0
M  V30 64 H 4.4344 -0.6889 1.0898 0
M  V30 65 H 2.5413 -0.6459 -1.2913 0
M  V30 66 H 2.3924 1.121 -1.3306 0
M  V30 67 H 3.9503 0.387 -1.027 0
M  V30 68 H 5.298 3.223 6.7434 0
M  V30 69 H -1.5435 -4.4096 -1.7121 0
M  V30 70 H -0.5492 -2.118 -3.2827 0
M  V30 71 H -0.5879 -3.8149 -3.7712 0
M  V30 72 H -4.3207 -3.9582 -3.4627 0
M  V30 73 H -2.9164 -4.9821 -3.8305 0
M  V30 74 H -4.3198 -4.0555 0.7408 0
M  V30 75 H -0.3273 -2.3456 -5.6866 0
M  V30 76 H -1.7723 -1.4167 -5.2687 0
M  V30 77 H -4.0151 -2.5816 -5.3854 0
M  V30 78 H -4.0454 -4.2836 -5.8618 0
M  V30 79 H -2.7754 -1.8887 -7.434 0
M  V30 80 H -3.1201 -3.5398 -7.8934 0
M  V30 81 H -0.329 -2.2909 -7.9307 0
M  V30 82 H -0.7045 -3.991 -8.3102 0
M  V30 83 H -0.6273 -2.7067 -10.1541 0
M  V30 END ATOM
M  V30 BEGIN BOND
M  V30 1 2 1 2
M  V30 2 1 2 3
M  V30 3 1 2 4
M  V30 4 2 3 5
M  V30 5 1 3 6
M  V30 6 1 4 7
M  V30 7 1 4 8
M  V30 8 1 4 9
M  V30 9 1 5 10
M  V30 10 1 5 11
M  V30 11 1 6 12
M  V30 12 1 6 13
M  V30 13 1 8 14
M  V30 14 2 8 15
M  V30 15 1 9 16
M  V30 16 2 11 17
M  V30 17 1 11 18
M  V30 18 1 12 19
M  V30 19 1 12 20
M  V30 20 1 15 21
M  V30 21 1 15 22
M  V30 22 1 16 23
M  V30 23 1 17 24
M  V30 24 1 17 25
M  V30 25 2 18 26
M  V30 26 2 21 27
M  V30 27 2 22 28
M  V30 28 1 22 29
M  V30 29 1 23 30
M  V30 30 1 23 31
M  V30 31 2 25 32
M  V30 32 1 29 33
M  V30 33 1 33 34
M  V30 34 1 33 35
M  V30 35 1 34 36
M  V30 36 1 34 37
M  V30 37 2 35 38
M  V30 38 1 35 39
M  V30 39 1 36 40
M  V30 40 1 37 41
M  V30 41 1 40 42
M  V30 42 1 42 43
M  V30 43 1 43 44
M  V30 44 1 44 45
M  V30 45 1 9 13
M  V30 46 1 12 18
M  V30 47 1 16 21
M  V30 48 1 26 32
M  V30 49 1 41 42
M  V30 50 1 6 46
M  V30 51 1 7 47
M  V30 52 1 9 48
M  V30 53 1 10 49
M  V30 54 1 13 50
M  V30 55 1 13 51
M  V30 56 1 14 52
M  V30 57 1 16 53
M  V30 58 1 19 54
M  V30 59 1 20 55
M  V30 60 1 20 56
M  V30 61 1 20 57
M  V30 62 1 24 58
M  V30 63 1 25 59
M  V30 64 1 26 60
M  V30 65 1 29 61
M  V30 66 1 30 62
M  V30 67 1 30 63
M  V30 68 1 30 64
M  V30 69 1 31 65
M  V30 70 1 31 66
M  V30 71 1 31 67
M  V30 72 1 32 68
M  V30 73 1 33 69
M  V30 74 1 36 70
M  V30 75 1 36 71
M  V30 76 1 37 72
M  V30 77 1 37 73
M  V30 78 1 39 74
M  V30 79 1 40 75
M  V30 80 1 40 76
M  V30 81 1 41 77
M  V30 82 1 41 78
M  V30 83 1 43 79
M  V30 84 1 43 80
M  V30 85 1 44 81
M  V30 86 1 44 82
M  V30 87 1 45 83
M  V30 END BOND
M  V30 BEGIN COLLECTION
M  V30 MDLV30/STEABS ATOMS=(5 4 6 9 12 16)
M  V30 END COLLECTION
M  V30 END CTAB
M  END
>  <level_0>
1779

>  <index>
1779

>  <NO.>
1780

>  <Name>
apicycline

>  <SMILES>
CN(C)[C@@H]1C(=O)C(C(=O)NC(C(=O)O)N2CCN(CCO)CC2)=C(O)[C@@]2(O)C(=O)C3=C(O)c4c(O)cccc4[C@@](C)(O)[C@H]3C[C@@H]12

>  <logBB>


>  <Class>
-1

>  <MW>
630.25

>  <nHBAcc>
13

>  <nHBDon>
8

>  <SLogP>
-1.72

>  <TopoPSA>
231.64

>  <MMFF94 Energy>
218.95

$$$$
CN(C)[C@@H]1C(=O)C(C(=O)NCN2CCCC(C(=O)O)C2)=C(O)[C@@]2(O)C(=O)C3=C(O)c4c(O)cccc4[C@@](C)(O)[C@H]3C[C@@H]12
Actelion Java MolfileCreator 2.0

  0  0  0  0  0  0              0 V3000
M  V30 BEGIN CTAB
M  V30 COUNTS 77 81 0 0 0
M  V30 BEGIN ATOM
M  V30 1 O 0.241 0.5625 -2.8152 0
M  V30 2 C 0.0954 -0.6389 -2.5927 0
M  V30 3 C 0.7967 -1.6573 -3.4259 0
M  V30 4 C -0.757 -1.2216 -1.4481 0 CFG=2
M  V30 5 C 1.0994 -1.3921 -4.7062 0
M  V30 6 C 1.1085 -2.9694 -2.744 0 CFG=1
M  V30 7 O -1.6407 -2.2262 -1.9702 0
M  V30 8 C -1.6445 -0.1681 -0.8259 0
M  V30 9 C 0.2037 -1.914 -0.4775 0 CFG=1
M  V30 10 O 0.9177 -0.1543 -5.2857 0
M  V30 11 C 1.6581 -2.4622 -5.5679 0
M  V30 12 C 2.3516 -3.6593 -3.4179 0 CFG=1
M  V30 13 C 1.3116 -2.7338 -1.2194 0
M  V30 14 O -2.7639 0.1033 -1.6193 0
M  V30 15 C -1.4373 0.3997 0.3827 0
M  V30 16 C 0.838 -0.8779 0.4832 0 CFG=1
M  V30 17 C 1.5986 -2.4234 -6.9779 0
M  V30 18 C 2.279 -3.5794 -4.9489 0
M  V30 19 O 3.5511 -2.9788 -3.0122 0
M  V30 20 C 2.4823 -5.0998 -2.8858 0
M  V30 21 C -0.2244 0.0086 1.1681 0
M  V30 22 C -2.4367 1.3998 0.8895 0
M  V30 23 N 1.7723 -1.5433 1.4335 0
M  V30 24 O 0.9349 -1.4135 -7.6226 0
M  V30 25 C 2.1776 -3.424 -7.7609 0
M  V30 26 C 2.8785 -4.5645 -5.7608 0
M  V30 27 O -0.0783 0.4637 2.3053 0
M  V30 28 O -3.4163 1.7084 0.209 0
M  V30 29 N -2.2037 1.9343 2.1195 0
M  V30 30 C 2.7529 -0.6213 2.0072 0
M  V30 31 C 1.1405 -2.3459 2.4788 0
M  V30 32 C 2.8266 -4.4879 -7.1509 0
M  V30 33 C -3.0848 2.8785 2.7281 0
M  V30 34 N -2.377 3.4095 3.8859 0
M  V30 35 C -3.3384 4.047 4.8073 0
M  V30 36 C -1.3441 4.3796 3.4794 0
M  V30 37 C -2.6447 4.5587 6.0777 0
M  V30 38 C -0.5767 4.9014 4.6949 0
M  V30 39 C -3.6533 5.231 6.9775 0
M  V30 40 C -1.5136 5.525 5.7232 0
M  V30 41 O -4.8207 5.4754 6.7228 0
M  V30 42 O -3.1399 5.5529 8.1818 0
M  V30 43 H 0.2394 -3.6274 -2.8835 0
M  V30 44 H -2.3956 -1.7326 -2.3551 0
M  V30 45 H -0.3912 -2.6324 0.104 0
M  V30 46 H 0.6299 0.4801 -4.5969 0
M  V30 47 H 1.3981 -3.697 -0.704 0
M  V30 48 H 2.2777 -2.233 -1.0772 0
M  V30 49 H -3.3037 0.8095 -1.1883 0
M  V30 50 H 1.433 -0.1866 -0.1314 0
M  V30 51 H 3.8409 -2.4102 -3.7478 0
M  V30 52 H 2.5304 -5.1281 -1.7931 0
M  V30 53 H 1.6461 -5.7279 -3.2107 0
M  V30 54 H 3.4194 -5.5681 -3.2065 0
M  V30 55 H 1.0932 -1.4724 -8.5764 0
M  V30 56 H 2.1267 -3.3888 -8.8449 0
M  V30 57 H 3.4057 -5.41 -5.3272 0
M  V30 58 H -1.4119 1.6218 2.6773 0
M  V30 59 H 2.3125 0.1027 2.6989 0
M  V30 60 H 3.2773 -0.0711 1.2182 0
M  V30 61 H 3.5221 -1.1797 2.553 0
M  V30 62 H 0.5876 -1.7467 3.2085 0
M  V30 63 H 0.4595 -3.0922 2.0601 0
M  V30 64 H 1.9026 -2.9115 3.0276 0
M  V30 65 H 3.289 -5.2639 -7.7557 0
M  V30 66 H -3.3878 3.6485 2.0085 0
M  V30 67 H -3.979 2.3166 3.0232 0
M  V30 68 H -3.8679 4.8669 4.3014 0
M  V30 69 H -4.1005 3.314 5.1039 0
M  V30 70 H -0.6189 3.9095 2.8047 0
M  V30 71 H -1.7915 5.2233 2.9372 0
M  V30 72 H -2.242 3.6952 6.624 0
M  V30 73 H -0.0207 4.0773 5.1597 0
M  V30 74 H 0.1629 5.6435 4.3736 0
M  V30 75 H -0.9452 5.7987 6.62 0
M  V30 76 H -1.9292 6.4588 5.3222 0
M  V30 77 H -3.8896 5.9622 8.6629 0
M  V30 END ATOM
M  V30 BEGIN BOND
M  V30 1 2 1 2
M  V30 2 1 2 3
M  V30 3 1 2 4
M  V30 4 2 3 5
M  V30 5 1 3 6
M  V30 6 1 4 7
M  V30 7 1 4 8
M  V30 8 1 4 9
M  V30 9 1 5 10
M  V30 10 1 5 11
M  V30 11 1 6 12
M  V30 12 1 6 13
M  V30 13 1 8 14
M  V30 14 2 8 15
M  V30 15 1 9 16
M  V30 16 2 11 17
M  V30 17 1 11 18
M  V30 18 1 12 19
M  V30 19 1 12 20
M  V30 20 1 15 21
M  V30 21 1 15 22
M  V30 22 1 16 23
M  V30 23 1 17 24
M  V30 24 1 17 25
M  V30 25 2 18 26
M  V30 26 2 21 27
M  V30 27 2 22 28
M  V30 28 1 22 29
M  V30 29 1 23 30
M  V30 30 1 23 31
M  V30 31 2 25 32
M  V30 32 1 29 33
M  V30 33 1 33 34
M  V30 34 1 34 35
M  V30 35 1 34 36
M  V30 36 1 35 37
M  V30 37 1 36 38
M  V30 38 1 37 39
M  V30 39 1 37 40
M  V30 40 2 39 41
M  V30 41 1 39 42
M  V30 42 1 9 13
M  V30 43 1 12 18
M  V30 44 1 16 21
M  V30 45 1 26 32
M  V30 46 1 38 40
M  V30 47 1 6 43
M  V30 48 1 7 44
M  V30 49 1 9 45
M  V30 50 1 10 46
M  V30 51 1 13 47
M  V30 52 1 13 48
M  V30 53 1 14 49
M  V30 54 1 16 50
M  V30 55 1 19 51
M  V30 56 1 20 52
M  V30 57 1 20 53
M  V30 58 1 20 54
M  V30 59 1 24 55
M  V30 60 1 25 56
M  V30 61 1 26 57
M  V30 62 1 29 58
M  V30 63 1 30 59
M  V30 64 1 30 60
M  V30 65 1 30 61
M  V30 66 1 31 62
M  V30 67 1 31 63
M  V30 68 1 31 64
M  V30 69 1 32 65
M  V30 70 1 33 66
M  V30 71 1 33 67
M  V30 72 1 35 68
M  V30 73 1 35 69
M  V30 74 1 36 70
M  V30 75 1 36 71
M  V30 76 1 37 72
M  V30 77 1 38 73
M  V30 78 1 38 74
M  V30 79 1 40 75
M  V30 80 1 40 76
M  V30 81 1 42 77
M  V30 END BOND
M  V30 BEGIN COLLECTION
M  V30 MDLV30/STEABS ATOMS=(5 4 6 9 12 16)
M  V30 END COLLECTION
M  V30 END CTAB
M  END
>  <level_0>
1780

>  <index>
1780

>  <NO.>
1781

>  <Name>
pecocycline

>  <SMILES>
CN(C)[C@@H]1C(=O)C(C(=O)NCN2CCCC(C(=O)O)C2)=C(O)[C@@]2(O)C(=O)C3=C(O)c4c(O)cccc4[C@@](C)(O)[C@H]3C[C@@H]12

>  <logBB>


>  <Class>
-1

>  <MW>
585.23

>  <nHBAcc>
11

>  <nHBDon>
7

>  <SLogP>
0.01

>  <TopoPSA>
208.17

>  <MMFF94 Energy>
48.324

$$$$
CN(C)[C@@H]1C(=O)C(C(=O)NCNC(C(=O)NC2C(=O)N3C2SC(C)(C)C3C(=O)O)c2ccccc2)=C(O)[C@@]2(O)C(=O)C3=C(O)c4c(O)cccc4[C@@](C)(O)[C@H]3C[C@@H]12
Actelion Java MolfileCreator 2.0

  0  0  0  0  0  0              0 V3000
M  V30 BEGIN CTAB
M  V30 COUNTS 100 106 0 0 0
M  V30 BEGIN ATOM
M  V30 1 S -3.4922 4.794 1.7043 0
M  V30 2 C -4.8724 5.3832 2.8153 0
M  V30 3 C -2.8335 6.5074 1.5474 0
M  V30 4 C -5.2558 6.7542 2.2211 0
M  V30 5 C -6.028 4.3842 2.7284 0
M  V30 6 C -4.3293 5.4384 4.2495 0
M  V30 7 N -4.0574 7.3055 1.6102 0
M  V30 8 C -2.5992 7.0903 0.1273 0
M  V30 9 C -5.8427 7.7296 3.2299 0
M  V30 10 C -3.9905 7.7473 0.3284 0
M  V30 11 N -2.4948 6.124 -0.997 0
M  V30 12 O -5.2417 8.5649 3.8866 0
M  V30 13 O -7.1697 7.5573 3.407 0
M  V30 14 O -4.8143 8.2914 -0.3686 0
M  V30 15 C -1.3793 5.3266 -1.143 0
M  V30 16 O -0.4043 5.4301 -0.3978 0
M  V30 17 C -1.4673 4.2907 -2.2951 0
M  V30 18 N -0.5947 3.1279 -2.0316 0
M  V30 19 C -1.1065 4.9241 -3.6306 0
M  V30 20 C -1.0849 2.3378 -0.9281 0
M  V30 21 C -1.9178 4.6964 -4.7543 0
M  V30 22 C 0.0436 5.7167 -3.783 0
M  V30 23 N -0.2186 1.2095 -0.9108 0
M  V30 24 C -1.6026 5.2686 -5.9883 0
M  V30 25 C 0.3559 6.288 -5.018 0
M  V30 26 C -0.2717 0.2661 0.0707 0
M  V30 27 C -0.4687 6.0671 -6.1185 0
M  V30 28 O -1.059 0.3384 1.0159 0
M  V30 29 C 0.6788 -0.8906 -0.0445 0
M  V30 30 C 0.6708 -1.8347 0.9225 0
M  V30 31 C 1.6372 -1.0315 -1.1853 0
M  V30 32 O -0.1581 -1.7736 2.0475 0
M  V30 33 C 1.598 -3.0273 0.9722 0 CFG=1
M  V30 34 O 1.7087 -0.1251 -2.0186 0
M  V30 35 C 2.4298 -2.3496 -1.3172 0 CFG=2
M  V30 36 O 2.0702 -3.105 2.3268 0
M  V30 37 C 0.8621 -4.3323 0.6092 0
M  V30 38 C 2.8259 -2.9319 0.0621 0 CFG=2
M  V30 39 N 3.6181 -2.2536 -2.2105 0
M  V30 40 O -0.2561 -4.387 0.0984 0
M  V30 41 C 1.6321 -5.5784 0.8887 0
M  V30 42 C 3.5521 -4.3084 -0.1046 0
M  V30 43 C 4.5753 -1.2021 -1.8728 0
M  V30 44 C 3.2601 -2.1944 -3.6281 0
M  V30 45 C 0.989 -6.7272 1.1493 0
M  V30 46 C 3.1372 -5.4432 0.8753 0 CFG=2
M  V30 47 O -0.3784 -6.8688 1.0448 0
M  V30 48 C 1.758 -7.9223 1.5738 0
M  V30 49 C 3.8121 -6.82 0.5232 0 CFG=1
M  V30 50 C 1.176 -9.0038 2.2699 0
M  V30 51 C 3.1438 -7.9831 1.2693 0
M  V30 52 O 3.6651 -7.0763 -0.8834 0
M  V30 53 C 5.3287 -6.7206 0.7788 0
M  V30 54 O -0.1347 -8.9576 2.6652 0
M  V30 55 C 1.9177 -10.1365 2.6115 0
M  V30 56 C 3.8658 -9.1481 1.6017 0
M  V30 57 C 3.2595 -10.2116 2.2668 0
M  V30 58 H -2.0966 6.7944 2.303 0
M  V30 59 H -5.9939 6.6392 1.415 0
M  V30 60 H -6.4039 4.2825 1.7037 0
M  V30 61 H -5.7287 3.3887 3.0766 0
M  V30 62 H -6.8683 4.708 3.3529 0
M  V30 63 H -5.1166 5.7264 4.9557 0
M  V30 64 H -3.9559 4.4601 4.5752 0
M  V30 65 H -3.5133 6.1614 4.3581 0
M  V30 66 H -1.7988 7.839 0.0782 0
M  V30 67 H -3.2461 6.0559 -1.6762 0
M  V30 68 H -7.4169 8.2507 4.0567 0
M  V30 69 H -2.5104 3.9491 -2.3484 0
M  V30 70 H 0.3204 3.4938 -1.7643 0
M  V30 71 H -2.1063 1.9778 -1.0923 0
M  V30 72 H -1.0306 2.8491 0.038 0
M  V30 73 H -2.7979 4.0611 -4.68 0
M  V30 74 H 0.7111 5.893 -2.9411 0
M  V30 75 H 0.4182 1.0991 -1.6972 0
M  V30 76 H -2.2379 5.0841 -6.8508 0
M  V30 77 H 1.2479 6.9006 -5.1217 0
M  V30 78 H -0.2216 6.5087 -7.0803 0
M  V30 79 H -0.7587 -0.9934 1.9651 0
M  V30 80 H 1.7286 -3.0594 -1.7802 0
M  V30 81 H 1.2937 -2.8867 2.8846 0
M  V30 82 H 3.5364 -2.252 0.5534 0
M  V30 83 H 3.3962 -4.6687 -1.1294 0
M  V30 84 H 4.6276 -4.1173 -0.0173 0
M  V30 85 H 4.1841 -0.1933 -2.0347 0
M  V30 86 H 4.9107 -1.2783 -0.8345 0
M  V30 87 H 5.4777 -1.3074 -2.4864 0
M  V30 88 H 2.7719 -1.2576 -3.9121 0
M  V30 89 H 2.5979 -3.0249 -3.8968 0
M  V30 90 H 4.1566 -2.3055 -4.2487 0
M  V30 91 H 3.4514 -5.162 1.8902 0
M  V30 92 H -0.756 -6.0441 0.6744 0
M  V30 93 H 2.9467 -7.7235 -1.0002 0
M  V30 94 H 5.7794 -5.883 0.2383 0
M  V30 95 H 5.552 -6.6034 1.8447 0
M  V30 96 H 5.8629 -7.6 0.4022 0
M  V30 97 H -0.4033 -9.8202 3.0142 0
M  V30 98 H 1.4641 -10.964 3.1485 0
M  V30 99 H 4.9158 -9.255 1.343 0
M  V30 100 H 3.8391 -11.0958 2.52 0
M  V30 END ATOM
M  V30 BEGIN BOND
M  V30 1 1 1 2
M  V30 2 1 1 3
M  V30 3 1 2 4
M  V30 4 1 2 5
M  V30 5 1 2 6
M  V30 6 1 3 7
M  V30 7 1 3 8
M  V30 8 1 4 9
M  V30 9 1 7 10
M  V30 10 1 8 11
M  V30 11 2 9 12
M  V30 12 1 9 13
M  V30 13 2 10 14
M  V30 14 1 11 15
M  V30 15 2 15 16
M  V30 16 1 15 17
M  V30 17 1 17 18
M  V30 18 1 17 19
M  V30 19 1 18 20
M  V30 20 2 19 21
M  V30 21 1 19 22
M  V30 22 1 20 23
M  V30 23 1 21 24
M  V30 24 2 22 25
M  V30 25 1 23 26
M  V30 26 2 24 27
M  V30 27 2 26 28
M  V30 28 1 26 29
M  V30 29 2 29 30
M  V30 30 1 29 31
M  V30 31 1 30 32
M  V30 32 1 30 33
M  V30 33 2 31 34
M  V30 34 1 31 35
M  V30 35 1 33 36
M  V30 36 1 33 37
M  V30 37 1 33 38
M  V30 38 1 35 39
M  V30 39 2 37 40
M  V30 40 1 37 41
M  V30 41 1 38 42
M  V30 42 1 39 43
M  V30 43 1 39 44
M  V30 44 2 41 45
M  V30 45 1 41 46
M  V30 46 1 45 47
M  V30 47 1 45 48
M  V30 48 1 46 49
M  V30 49 2 48 50
M  V30 50 1 48 51
M  V30 51 1 49 52
M  V30 52 1 49 53
M  V30 53 1 50 54
M  V30 54 1 50 55
M  V30 55 2 51 56
M  V30 56 2 55 57
M  V30 57 1 4 7
M  V30 58 1 8 10
M  V30 59 1 25 27
M  V30 60 1 35 38
M  V30 61 1 42 46
M  V30 62 1 49 51
M  V30 63 1 56 57
M  V30 64 1 3 58
M  V30 65 1 4 59
M  V30 66 1 5 60
M  V30 67 1 5 61
M  V30 68 1 5 62
M  V30 69 1 6 63
M  V30 70 1 6 64
M  V30 71 1 6 65
M  V30 72 1 8 66
M  V30 73 1 11 67
M  V30 74 1 13 68
M  V30 75 1 17 69
M  V30 76 1 18 70
M  V30 77 1 20 71
M  V30 78 1 20 72
M  V30 79 1 21 73
M  V30 80 1 22 74
M  V30 81 1 23 75
M  V30 82 1 24 76
M  V30 83 1 25 77
M  V30 84 1 27 78
M  V30 85 1 32 79
M  V30 86 1 35 80
M  V30 87 1 36 81
M  V30 88 1 38 82
M  V30 89 1 42 83
M  V30 90 1 42 84
M  V30 91 1 43 85
M  V30 92 1 43 86
M  V30 93 1 43 87
M  V30 94 1 44 88
M  V30 95 1 44 89
M  V30 96 1 44 90
M  V30 97 1 46 91
M  V30 98 1 47 92
M  V30 99 1 52 93
M  V30 100 1 53 94
M  V30 101 1 53 95
M  V30 102 1 53 96
M  V30 103 1 54 97
M  V30 104 1 55 98
M  V30 105 1 56 99
M  V30 106 1 57 100
M  V30 END BOND
M  V30 BEGIN COLLECTION
M  V30 MDLV30/STEABS ATOMS=(5 33 35 38 46 49)
M  V30 END COLLECTION
M  V30 END CTAB
M  END
>  <level_0>
1781

>  <index>
1781

>  <NO.>
1782

>  <Name>
penimocyclin

>  <SMILES>
CN(C)[C@@H]1C(=O)C(C(=O)NCNC(C(=O)NC2C(=O)N3C2SC(C)(C)C3C(=O)O)c2ccccc2)=C(O)[C@@]2(O)C(=O)C3=C(O)c4c(O)cccc4[C@@](C)(O)[C@H]3C[C@@H]12

>  <logBB>


>  <Class>
-1

>  <MW>
805.26

>  <nHBAcc>
14

>  <nHBDon>
9

>  <SLogP>
0.18

>  <TopoPSA>
266.37

>  <MMFF94 Energy>
145.58

$$$$
CN(C)[C@@H]1C(=O)C(C(=O)NCO)=C(O)[C@@]2(O)C(=O)C3=C(O)c4c(O)ccc(Cl)c4[C@@](C)(O)[C@H]3C[C@@H]12
Actelion Java MolfileCreator 2.0

  0  0  0  0  0  0              0 V3000
M  V30 BEGIN CTAB
M  V30 COUNTS 60 63 0 0 0
M  V30 BEGIN ATOM
M  V30 1 Cl 1.621 5.3571 -0.5671 0
M  V30 2 C 0.5271 4.1682 -1.1896 0
M  V30 3 C 0.8699 2.805 -1.3418 0
M  V30 4 C -0.73 4.6492 -1.5733 0
M  V30 5 C -0.0734 1.948 -1.9837 0
M  V30 6 C 2.2234 2.2137 -0.9075 0 CFG=1
M  V30 7 C -1.6678 3.7948 -2.1358 0
M  V30 8 C 0.2573 0.5212 -2.2046 0
M  V30 9 C -1.3359 2.4642 -2.3475 0
M  V30 10 O 2.764 2.8389 0.2584 0
M  V30 11 C 2.1309 0.6935 -0.551 0 CFG=2
M  V30 12 C 3.236 2.4246 -2.0497 0
M  V30 13 O -0.5899 -0.1983 -3.0252 0
M  V30 14 C 1.2421 -0.0346 -1.4904 0
M  V30 15 O -2.324 1.6917 -2.9017 0
M  V30 16 C 1.6018 0.3865 0.8626 0
M  V30 17 C 1.2689 -1.5003 -1.3462 0
M  V30 18 C 1.5076 -1.1477 1.1804 0 CFG=2
M  V30 19 O 1.4568 -2.2051 -2.3357 0
M  V30 20 C 0.8696 -2.0166 0.0588 0 CFG=2
M  V30 21 C 0.7291 -1.316 2.5216 0 CFG=2
M  V30 22 O 1.3209 -3.3639 0.1622 0
M  V30 23 C -0.6563 -2.0251 0.0802 0
M  V30 24 N 0.7086 -2.6784 3.1156 0
M  V30 25 C -0.7117 -0.8568 2.2369 0
M  V30 26 O -1.2273 -2.683 -1.0083 0
M  V30 27 C -1.3899 -1.4093 1.0314 0
M  V30 28 C 2.0615 -3.1692 3.4028 0
M  V30 29 C -0.072 -2.711 4.3639 0
M  V30 30 O -1.2732 -0.0287 2.9536 0
M  V30 31 C -2.8539 -1.2405 0.8688 0
M  V30 32 O -3.6582 -1.5955 1.7174 0
M  V30 33 N -3.1982 -0.6755 -0.3368 0
M  V30 34 C -4.5533 -0.401 -0.6706 0
M  V30 35 O -4.5383 -0.0205 -2.0243 0
M  V30 36 H -0.985 5.6984 -1.4378 0
M  V30 37 H -2.6465 4.1687 -2.4248 0
M  V30 38 H 2.7723 3.8025 0.1133 0
M  V30 39 H 3.1454 0.2733 -0.6066 0
M  V30 40 H 3.3741 3.4897 -2.2689 0
M  V30 41 H 4.2245 2.044 -1.7673 0
M  V30 42 H 2.9276 1.9303 -2.977 0
M  V30 43 H -0.1734 -1.0724 -3.2087 0
M  V30 44 H -1.8875 0.8819 -3.2466 0
M  V30 45 H 0.6288 0.8764 0.9895 0
M  V30 46 H 2.2649 0.8369 1.6124 0
M  V30 47 H 2.5437 -1.4821 1.3205 0
M  V30 48 H 1.1563 -0.6155 3.2537 0
M  V30 49 H 0.908 -3.8434 -0.5827 0
M  V30 50 H -2.1893 -2.8011 -0.8727 0
M  V30 51 H 2.6087 -2.4952 4.0718 0
M  V30 52 H 2.6469 -3.3037 2.4895 0
M  V30 53 H 2.021 -4.1587 3.8731 0
M  V30 54 H 0.3122 -2.0037 5.1077 0
M  V30 55 H -1.1288 -2.4908 4.1825 0
M  V30 56 H -0.0519 -3.7151 4.8034 0
M  V30 57 H -2.4964 -0.3888 -1.0049 0
M  V30 58 H -4.9417 0.4076 -0.0447 0
M  V30 59 H -5.1632 -1.2992 -0.5413 0
M  V30 60 H -4.0994 0.85 -2.0683 0
M  V30 END ATOM
M  V30 BEGIN BOND
M  V30 1 1 1 2
M  V30 2 2 2 3
M  V30 3 1 2 4
M  V30 4 1 3 5
M  V30 5 1 3 6
M  V30 6 2 4 7
M  V30 7 1 5 8
M  V30 8 2 5 9
M  V30 9 1 6 10
M  V30 10 1 6 11
M  V30 11 1 6 12
M  V30 12 1 8 13
M  V30 13 2 8 14
M  V30 14 1 9 15
M  V30 15 1 11 16
M  V30 16 1 14 17
M  V30 17 1 16 18
M  V30 18 2 17 19
M  V30 19 1 17 20
M  V30 20 1 18 21
M  V30 21 1 20 22
M  V30 22 1 20 23
M  V30 23 1 21 24
M  V30 24 1 21 25
M  V30 25 1 23 26
M  V30 26 2 23 27
M  V30 27 1 24 28
M  V30 28 1 24 29
M  V30 29 2 25 30
M  V30 30 1 27 31
M  V30 31 2 31 32
M  V30 32 1 31 33
M  V30 33 1 33 34
M  V30 34 1 34 35
M  V30 35 1 7 9
M  V30 36 1 11 14
M  V30 37 1 18 20
M  V30 38 1 25 27
M  V30 39 1 4 36
M  V30 40 1 7 37
M  V30 41 1 10 38
M  V30 42 1 11 39
M  V30 43 1 12 40
M  V30 44 1 12 41
M  V30 45 1 12 42
M  V30 46 1 13 43
M  V30 47 1 15 44
M  V30 48 1 16 45
M  V30 49 1 16 46
M  V30 50 1 18 47
M  V30 51 1 21 48
M  V30 52 1 22 49
M  V30 53 1 26 50
M  V30 54 1 28 51
M  V30 55 1 28 52
M  V30 56 1 28 53
M  V30 57 1 29 54
M  V30 58 1 29 55
M  V30 59 1 29 56
M  V30 60 1 33 57
M  V30 61 1 34 58
M  V30 62 1 34 59
M  V30 63 1 35 60
M  V30 END BOND
M  V30 BEGIN COLLECTION
M  V30 MDLV30/STEABS ATOMS=(5 6 11 18 20 21)
M  V30 END COLLECTION
M  V30 END CTAB
M  END
>  <level_0>
1782

>  <index>
1782

>  <NO.>
1783

>  <Name>
clomocycline

>  <SMILES>
CN(C)[C@@H]1C(=O)C(C(=O)NCO)=C(O)[C@@]2(O)C(=O)C3=C(O)c4c(O)ccc(Cl)c4[C@@](C)(O)[C@H]3C[C@@H]12

>  <logBB>


>  <Class>
-1

>  <MW>
508.12

>  <nHBAcc>
10

>  <nHBDon>
7

>  <SLogP>
-0.14

>  <TopoPSA>
187.86

>  <MMFF94 Energy>
71.356

$$$$
CN(C)[C@@H]1C(=O)C(C(N)=O)=C(O)[C@@]2(O)C(=O)C3=C(O)c4c(O)ccc(Cl)c4[C@@H](O)[C@H]3C[C@@H]12
Actelion Java MolfileCreator 2.0

  0  0  0  0  0  0              0 V3000
M  V30 BEGIN CTAB
M  V30 COUNTS 53 56 0 0 0
M  V30 BEGIN ATOM
M  V30 1 Cl 4.7257 -1.1391 3.1758 0
M  V30 2 C 3.1401 -1.6184 3.6695 0
M  V30 3 C 2.0024 -1.3749 2.8758 0
M  V30 4 C 3.0293 -2.2752 4.8943 0
M  V30 5 C 0.733 -1.8385 3.3071 0
M  V30 6 C 2.1049 -0.6603 1.5463 0 CFG=1
M  V30 7 C 1.784 -2.6952 5.347 0
M  V30 8 C -0.4406 -1.6239 2.4152 0
M  V30 9 C 0.6492 -2.4753 4.5633 0
M  V30 10 O 2.3814 -1.6028 0.5074 0
M  V30 11 C 0.8239 0.1446 1.2015 0 CFG=2
M  V30 12 O -1.534 -2.4296 2.6518 0
M  V30 13 C -0.405 -0.6882 1.4438 0
M  V30 14 O -0.5605 -2.8603 5.0732 0
M  V30 15 C 0.9241 0.7241 -0.2195 0
M  V30 16 C -1.6273 -0.4253 0.6308 0
M  V30 17 C -0.4006 1.3385 -0.7161 0 CFG=2
M  V30 18 O -2.7368 -0.7732 1.0577 0
M  V30 19 C -1.4942 0.2652 -0.7463 0 CFG=2
M  V30 20 C -0.1704 1.9964 -2.1047 0 CFG=2
M  V30 21 O -2.7613 0.8868 -0.9996 0
M  V30 22 C -1.2907 -0.721 -1.872 0
M  V30 23 N -0.6505 3.3921 -2.2713 0
M  V30 24 C -0.6075 1.1306 -3.3139 0
M  V30 25 O -1.5904 -2.0401 -1.5581 0
M  V30 26 C -0.8869 -0.3217 -3.0976 0
M  V30 27 C -2.0901 3.5691 -2.1139 0
M  V30 28 C 0.0896 4.3552 -1.4619 0
M  V30 29 O -0.6341 1.5797 -4.4649 0
M  V30 30 C -0.778 -1.3276 -4.1937 0
M  V30 31 O -0.924 -2.53 -3.9832 0
M  V30 32 N -0.5099 -0.8639 -5.4383 0
M  V30 33 H 3.91 -2.4558 5.5061 0
M  V30 34 H 2.9321 0.0576 1.5577 0
M  V30 35 H 1.7111 -3.1833 6.3148 0
M  V30 36 H 2.5933 -2.462 0.9132 0
M  V30 37 H 0.7557 0.9943 1.8978 0
M  V30 38 H -2.2985 -2.0808 2.146 0
M  V30 39 H -0.4321 -3.4348 5.843 0
M  V30 40 H 1.2574 -0.0393 -0.9326 0
M  V30 41 H 1.7054 1.4961 -0.2152 0
M  V30 42 H -0.6884 2.109 0.0108 0
M  V30 43 H 0.9168 2.0565 -2.2653 0
M  V30 44 H -3.434 0.2453 -0.6847 0
M  V30 45 H -1.4448 -2.6097 -2.351 0
M  V30 46 H -2.4172 3.4325 -1.0782 0
M  V30 47 H -2.6515 2.8869 -2.76 0
M  V30 48 H -2.3798 4.5811 -2.42 0
M  V30 49 H -0.0905 4.2335 -0.389 0
M  V30 50 H 1.1668 4.2696 -1.642 0
M  V30 51 H -0.1884 5.3791 -1.7367 0
M  V30 52 H -0.4451 0.1358 -5.6311 0
M  V30 53 H -0.4383 -1.5136 -6.2083 0
M  V30 END ATOM
M  V30 BEGIN BOND
M  V30 1 1 1 2
M  V30 2 2 2 3
M  V30 3 1 2 4
M  V30 4 1 3 5
M  V30 5 1 3 6
M  V30 6 2 4 7
M  V30 7 1 5 8
M  V30 8 2 5 9
M  V30 9 1 6 10
M  V30 10 1 6 11
M  V30 11 1 8 12
M  V30 12 2 8 13
M  V30 13 1 9 14
M  V30 14 1 11 15
M  V30 15 1 13 16
M  V30 16 1 15 17
M  V30 17 2 16 18
M  V30 18 1 16 19
M  V30 19 1 17 20
M  V30 20 1 19 21
M  V30 21 1 19 22
M  V30 22 1 20 23
M  V30 23 1 20 24
M  V30 24 1 22 25
M  V30 25 2 22 26
M  V30 26 1 23 27
M  V30 27 1 23 28
M  V30 28 2 24 29
M  V30 29 1 26 30
M  V30 30 2 30 31
M  V30 31 1 30 32
M  V30 32 1 7 9
M  V30 33 1 11 13
M  V30 34 1 17 19
M  V30 35 1 24 26
M  V30 36 1 4 33
M  V30 37 1 6 34
M  V30 38 1 7 35
M  V30 39 1 10 36
M  V30 40 1 11 37
M  V30 41 1 12 38
M  V30 42 1 14 39
M  V30 43 1 15 40
M  V30 44 1 15 41
M  V30 45 1 17 42
M  V30 46 1 20 43
M  V30 47 1 21 44
M  V30 48 1 25 45
M  V30 49 1 27 46
M  V30 50 1 27 47
M  V30 51 1 27 48
M  V30 52 1 28 49
M  V30 53 1 28 50
M  V30 54 1 28 51
M  V30 55 1 32 52
M  V30 56 1 32 53
M  V30 END BOND
M  V30 BEGIN COLLECTION
M  V30 MDLV30/STEABS ATOMS=(5 6 11 17 19 20)
M  V30 END COLLECTION
M  V30 END CTAB
M  END
>  <level_0>
1783

>  <index>
1783

>  <NO.>
1784

>  <Name>
demeclocycline

>  <SMILES>
CN(C)[C@@H]1C(=O)C(C(N)=O)=C(O)[C@@]2(O)C(=O)C3=C(O)c4c(O)ccc(Cl)c4[C@@H](O)[C@H]3C[C@@H]12

>  <logBB>


>  <Class>
-1

>  <MW>
464.1

>  <nHBAcc>
9

>  <nHBDon>
6

>  <SLogP>
0.11

>  <TopoPSA>
181.62

>  <MMFF94 Energy>
101.06

$$$$
CN(C)[C@@H]1C(=O)C(C(N)=O)=C(O)[C@@]2(O)C(=O)C3=C(O)c4c(O)ccc(Cl)c4[C@@](C)(O)[C@H]3C[C@@H]12
Actelion Java MolfileCreator 2.0

  0  0  0  0  0  0              0 V3000
M  V30 BEGIN CTAB
M  V30 COUNTS 56 59 0 0 0
M  V30 BEGIN ATOM
M  V30 1 Cl 5.4536 -0.8125 -1.3816 0
M  V30 2 C 4.4923 0.5414 -0.8849 0
M  V30 3 C 3.1118 0.6659 -1.1734 0
M  V30 4 C 5.1865 1.5415 -0.1991 0
M  V30 5 C 2.4527 1.8805 -0.8072 0
M  V30 6 C 2.3188 -0.4051 -1.9383 0 CFG=1
M  V30 7 C 4.5323 2.6942 0.2071 0
M  V30 8 C 1.0183 2.0681 -1.1581 0
M  V30 9 C 3.1825 2.8608 -0.0939 0
M  V30 10 O 2.7377 -1.7379 -1.6301 0
M  V30 11 C 0.7863 -0.3766 -1.6482 0 CFG=2
M  V30 12 C 2.558 -0.1882 -3.4479 0
M  V30 13 O 0.4979 3.3407 -1.0753 0
M  V30 14 C 0.2709 1.0032 -1.4686 0
M  V30 15 O 2.572 3.998 0.3616 0
M  V30 16 C 0.299 -1.1719 -0.4263 0
M  V30 17 C -1.2028 1.1097 -1.4655 0
M  V30 18 C -1.2637 -1.2238 -0.3823 0 CFG=2
M  V30 19 O -1.7492 1.9694 -2.1577 0
M  V30 20 C -1.9482 0.1661 -0.4786 0 CFG=2
M  V30 21 C -1.7024 -1.9942 0.8928 0 CFG=2
M  V30 22 O -3.2694 0.006 -1.0056 0
M  V30 23 C -2.0886 0.8814 0.8589 0
M  V30 24 N -3.134 -2.392 0.9878 0
M  V30 25 C -1.3514 -1.1004 2.0911 0
M  V30 26 O -2.5928 2.1763 0.7353 0
M  V30 27 C -1.7846 0.328 2.055 0
M  V30 28 C -3.5602 -3.1973 -0.1629 0
M  V30 29 C -3.4031 -3.1596 2.2143 0
M  V30 30 O -0.7594 -1.5546 3.0742 0
M  V30 31 C -1.9225 1.1414 3.2982 0
M  V30 32 O -2.3735 2.2849 3.2796 0
M  V30 33 N -1.523 0.5718 4.4619 0
M  V30 34 H 6.2453 1.4262 0.0225 0
M  V30 35 H 5.0852 3.4505 0.7565 0
M  V30 36 H 3.701 -1.7907 -1.7642 0
M  V30 37 H 0.2917 -0.8282 -2.5213 0
M  V30 38 H 3.6204 -0.2682 -3.7037 0
M  V30 39 H 2.0494 -0.9602 -4.0371 0
M  V30 40 H 2.2064 0.7925 -3.7861 0
M  V30 41 H -0.4086 3.3477 -1.445 0
M  V30 42 H 3.2283 4.6177 0.7141 0
M  V30 43 H 0.6648 -2.2045 -0.4767 0
M  V30 44 H 0.7113 -0.7375 0.4929 0
M  V30 45 H -1.5575 -1.8086 -1.2638 0
M  V30 46 H -1.0834 -2.8995 0.9684 0
M  V30 47 H -3.6354 0.9127 -1.0587 0
M  V30 48 H -2.6696 2.5877 1.629 0
M  V30 49 H -2.9385 -4.0907 -0.29 0
M  V30 50 H -3.5397 -2.622 -1.092 0
M  V30 51 H -4.6014 -3.5199 -0.0444 0
M  V30 52 H -2.7826 -4.0604 2.2804 0
M  V30 53 H -3.2398 -2.5538 3.1112 0
M  V30 54 H -4.4554 -3.4648 2.2543 0
M  V30 55 H -1.1155 -0.3612 4.4909 0
M  V30 56 H -1.6 1.0979 5.3209 0
M  V30 END ATOM
M  V30 BEGIN BOND
M  V30 1 1 1 2
M  V30 2 2 2 3
M  V30 3 1 2 4
M  V30 4 1 3 5
M  V30 5 1 3 6
M  V30 6 2 4 7
M  V30 7 1 5 8
M  V30 8 2 5 9
M  V30 9 1 6 10
M  V30 10 1 6 11
M  V30 11 1 6 12
M  V30 12 1 8 13
M  V30 13 2 8 14
M  V30 14 1 9 15
M  V30 15 1 11 16
M  V30 16 1 14 17
M  V30 17 1 16 18
M  V30 18 2 17 19
M  V30 19 1 17 20
M  V30 20 1 18 21
M  V30 21 1 20 22
M  V30 22 1 20 23
M  V30 23 1 21 24
M  V30 24 1 21 25
M  V30 25 1 23 26
M  V30 26 2 23 27
M  V30 27 1 24 28
M  V30 28 1 24 29
M  V30 29 2 25 30
M  V30 30 1 27 31
M  V30 31 2 31 32
M  V30 32 1 31 33
M  V30 33 1 7 9
M  V30 34 1 11 14
M  V30 35 1 18 20
M  V30 36 1 25 27
M  V30 37 1 4 34
M  V30 38 1 7 35
M  V30 39 1 10 36
M  V30 40 1 11 37
M  V30 41 1 12 38
M  V30 42 1 12 39
M  V30 43 1 12 40
M  V30 44 1 13 41
M  V30 45 1 15 42
M  V30 46 1 16 43
M  V30 47 1 16 44
M  V30 48 1 18 45
M  V30 49 1 21 46
M  V30 50 1 22 47
M  V30 51 1 26 48
M  V30 52 1 28 49
M  V30 53 1 28 50
M  V30 54 1 28 51
M  V30 55 1 29 52
M  V30 56 1 29 53
M  V30 57 1 29 54
M  V30 58 1 33 55
M  V30 59 1 33 56
M  V30 END BOND
M  V30 BEGIN COLLECTION
M  V30 MDLV30/STEABS ATOMS=(5 6 11 18 20 21)
M  V30 END COLLECTION
M  V30 END CTAB
M  END
>  <level_0>
1784

>  <index>
1784

>  <NO.>
1785

>  <Name>
auxeomycin

>  <SMILES>
CN(C)[C@@H]1C(=O)C(C(N)=O)=C(O)[C@@]2(O)C(=O)C3=C(O)c4c(O)ccc(Cl)c4[C@@](C)(O)[C@H]3C[C@@H]12

>  <logBB>


>  <Class>
-1

>  <MW>
478.11

>  <nHBAcc>
9

>  <nHBDon>
6

>  <SLogP>
0.28

>  <TopoPSA>
181.62

>  <MMFF94 Energy>
110.27

$$$$
CN(C)[C@@H]1C(=O)C(C(N)=O)=C(O)[C@@]2(O)C(=O)C3=C(O)c4c(O)ccc([N+](=O)[O-])c4C[C@H]3C[C@@H]12
Actelion Java MolfileCreator 2.0

  0  0  0  0  0  0              0 V3000
M  V30 BEGIN CTAB
M  V30 COUNTS 54 57 0 0 0
M  V30 BEGIN ATOM
M  V30 1 O 0.3235 0.89 -5.5927 0
M  V30 2 N 0.6956 1.9515 -5.0762 0 CHG=1
M  V30 3 O 1.7946 2.4953 -5.2389 0 CHG=-1
M  V30 4 C -0.2455 2.6214 -4.2001 0
M  V30 5 C -0.4537 2.1602 -2.8843 0
M  V30 6 C -0.9164 3.7279 -4.7247 0
M  V30 7 C -1.3517 2.8704 -2.0507 0
M  V30 8 C 0.3116 0.9878 -2.3153 0
M  V30 9 C -1.831 4.397 -3.9215 0
M  V30 10 C -1.5123 2.4186 -0.6398 0
M  V30 11 C -2.0483 3.9705 -2.605 0
M  V30 12 C -0.4753 0.2294 -1.227 0 CFG=2
M  V30 13 O -2.0809 3.3274 0.227 0
M  V30 14 C -1.1164 1.1855 -0.2626 0
M  V30 15 O -2.9951 4.6357 -1.8732 0
M  V30 16 C 0.4556 -0.7982 -0.567 0
M  V30 17 C -1.3736 0.7251 1.1339 0
M  V30 18 C -0.1766 -1.4639 0.6737 0 CFG=2
M  V30 19 O -2.2617 1.263 1.808 0
M  V30 20 C -0.5002 -0.4028 1.7316 0 CFG=2
M  V30 21 C 0.7729 -2.5712 1.2106 0 CFG=2
M  V30 22 O -1.2761 -0.9998 2.7779 0
M  V30 23 C 0.7517 0.1227 2.395 0
M  V30 24 N 0.1755 -3.9137 1.4217 0
M  V30 25 C 1.6186 -2.1586 2.4435 0
M  V30 26 O 0.7671 1.4915 2.626 0
M  V30 27 C 1.755 -0.7046 2.7604 0
M  V30 28 C -0.8956 -3.9578 2.4123 0
M  V30 29 C -0.2288 -4.5661 0.1799 0
M  V30 30 O 2.269 -2.9773 3.1012 0
M  V30 31 C 2.9333 -0.1513 3.4866 0
M  V30 32 O 3.0831 1.0591 3.6413 0
M  V30 33 N 3.8378 -1.0373 3.9685 0
M  V30 34 H -0.7397 4.0619 -5.7445 0
M  V30 35 H 1.2546 1.3774 -1.9084 0
M  V30 36 H 0.5703 0.2654 -3.0964 0
M  V30 37 H -2.3755 5.2436 -4.3312 0
M  V30 38 H -1.2936 -0.3246 -1.7103 0
M  V30 39 H -2.3268 2.8645 1.0558 0
M  V30 40 H -3.2427 5.4623 -2.3145 0
M  V30 41 H 1.4088 -0.326 -0.2949 0
M  V30 42 H 0.6976 -1.5695 -1.3105 0
M  V30 43 H -1.119 -1.9202 0.3434 0
M  V30 44 H 1.557 -2.73 0.4544 0
M  V30 45 H -1.7396 -0.2558 3.2194 0
M  V30 46 H 1.6004 1.7397 3.0942 0
M  V30 47 H -1.8018 -3.4467 2.0716 0
M  V30 48 H -0.5786 -3.5239 3.366 0
M  V30 49 H -1.1648 -4.9982 2.6287 0
M  V30 50 H -1.0767 -4.0692 -0.3025 0
M  V30 51 H 0.6028 -4.5972 -0.5324 0
M  V30 52 H -0.5114 -5.6078 0.37 0
M  V30 53 H 3.6896 -2.0442 3.894 0
M  V30 54 H 4.6442 -0.702 4.4766 0
M  V30 END ATOM
M  V30 BEGIN BOND
M  V30 1 2 1 2
M  V30 2 1 2 3
M  V30 3 1 2 4
M  V30 4 2 4 5
M  V30 5 1 4 6
M  V30 6 1 5 7
M  V30 7 1 5 8
M  V30 8 2 6 9
M  V30 9 1 7 10
M  V30 10 2 7 11
M  V30 11 1 8 12
M  V30 12 1 10 13
M  V30 13 2 10 14
M  V30 14 1 11 15
M  V30 15 1 12 16
M  V30 16 1 14 17
M  V30 17 1 16 18
M  V30 18 2 17 19
M  V30 19 1 17 20
M  V30 20 1 18 21
M  V30 21 1 20 22
M  V30 22 1 20 23
M  V30 23 1 21 24
M  V30 24 1 21 25
M  V30 25 1 23 26
M  V30 26 2 23 27
M  V30 27 1 24 28
M  V30 28 1 24 29
M  V30 29 2 25 30
M  V30 30 1 27 31
M  V30 31 2 31 32
M  V30 32 1 31 33
M  V30 33 1 9 11
M  V30 34 1 12 14
M  V30 35 1 18 20
M  V30 36 1 25 27
M  V30 37 1 6 34
M  V30 38 1 8 35
M  V30 39 1 8 36
M  V30 40 1 9 37
M  V30 41 1 12 38
M  V30 42 1 13 39
M  V30 43 1 15 40
M  V30 44 1 16 41
M  V30 45 1 16 42
M  V30 46 1 18 43
M  V30 47 1 21 44
M  V30 48 1 22 45
M  V30 49 1 26 46
M  V30 50 1 28 47
M  V30 51 1 28 48
M  V30 52 1 28 49
M  V30 53 1 29 50
M  V30 54 1 29 51
M  V30 55 1 29 52
M  V30 56 1 33 53
M  V30 57 1 33 54
M  V30 END BOND
M  V30 BEGIN COLLECTION
M  V30 MDLV30/STEABS ATOMS=(4 12 18 20 21)
M  V30 END COLLECTION
M  V30 END CTAB
M  END
>  <level_0>
1785

>  <index>
1785

>  <NO.>
1786

>  <Name>
nitrocycline

>  <SMILES>
CN(C)[C@@H]1C(=O)C(C(N)=O)=C(O)[C@@]2(O)C(=O)C3=C(O)c4c(O)ccc([N+](=O)[O-])c4C[C@H]3C[C@@H]12

>  <logBB>


>  <Class>
-1

>  <MW>
459.13

>  <nHBAcc>
10

>  <nHBDon>
5

>  <SLogP>
-0.13

>  <TopoPSA>
204.53

>  <MMFF94 Energy>
136.61

$$$$
CN(C)[C@@H]1C(=O)C(C(N)=O)=C(O)[C@@]2(O)C(=O)C3=C(O)c4c(O)cccc4[C@@H](O)[C@H]3C[C@@H]12
Actelion Java MolfileCreator 2.0

  0  0  0  0  0  0              0 V3000
M  V30 BEGIN CTAB
M  V30 COUNTS 53 56 0 0 0
M  V30 BEGIN ATOM
M  V30 1 O 2.098 -1.775 1.4521 0
M  V30 2 C 1.1984 -1.0905 0.9439 0
M  V30 3 C 0.9135 0.2654 1.4961 0
M  V30 4 C 0.3857 -1.6219 -0.2654 0 CFG=2
M  V30 5 C 1.8534 0.8909 2.2371 0
M  V30 6 C -0.452 0.8576 1.2791 0 CFG=1
M  V30 7 O 0.4451 -3.0487 -0.1432 0
M  V30 8 C 1.0563 -1.2847 -1.5851 0
M  V30 9 C -1.0703 -1.1531 -0.2009 0 CFG=1
M  V30 10 O 3.1189 0.383 2.4401 0
M  V30 11 C 1.5582 2.1899 2.9018 0
M  V30 12 C -0.3988 2.4067 1.3122 0 CFG=1
M  V30 13 C -1.1299 0.3792 -0.0121 0
M  V30 14 O 2.4449 -1.2245 -1.5008 0
M  V30 15 C 0.3806 -1.0868 -2.7427 0
M  V30 16 C -1.8709 -1.5284 -1.4711 0 CFG=1
M  V30 17 C 2.3096 2.7304 3.9636 0
M  V30 18 C 0.4452 2.9324 2.4469 0
M  V30 19 O 0.1088 2.9179 0.0765 0
M  V30 20 C -1.1129 -1.2228 -2.7685 0
M  V30 21 C 1.161 -0.7703 -3.9808 0
M  V30 22 N -2.445 -2.9005 -1.4207 0
M  V30 23 O 3.3564 2.0347 4.5051 0
M  V30 24 C 1.9932 3.9743 4.5225 0
M  V30 25 C 0.1406 4.187 3.0039 0
M  V30 26 O -1.7284 -1.0977 -3.8333 0
M  V30 27 O 2.3853 -0.6573 -3.9661 0
M  V30 28 N 0.4701 -0.6082 -5.1349 0
M  V30 29 C -3.8676 -2.8949 -1.7785 0
M  V30 30 C -1.7561 -3.9134 -2.2232 0
M  V30 31 C 0.9132 4.7044 4.0373 0
M  V30 32 H -1.0681 0.5191 2.1255 0
M  V30 33 H 1.3721 -3.2505 0.1045 0
M  V30 34 H -1.5648 -1.6122 0.6673 0
M  V30 35 H 3.1306 -0.5549 2.1531 0
M  V30 36 H -1.4259 2.7791 1.4124 0
M  V30 37 H -2.1787 0.7037 0.0183 0
M  V30 38 H -0.6877 0.8714 -0.8859 0
M  V30 39 H 2.8275 -1.0177 -2.3862 0
M  V30 40 H -2.7173 -0.8254 -1.4923 0
M  V30 41 H 0.9608 3.3557 0.2574 0
M  V30 42 H 3.8365 2.5951 5.1326 0
M  V30 43 H 2.5764 4.3822 5.343 0
M  V30 44 H -0.7022 4.7649 2.6292 0
M  V30 45 H -0.5437 -0.7079 -5.1713 0
M  V30 46 H 0.9698 -0.3955 -5.9867 0
M  V30 47 H -4.033 -2.5575 -2.8077 0
M  V30 48 H -4.4326 -2.243 -1.1026 0
M  V30 49 H -4.299 -3.8965 -1.6695 0
M  V30 50 H -1.9024 -3.7661 -3.2993 0
M  V30 51 H -0.6826 -3.945 -2.0314 0
M  V30 52 H -2.1383 -4.9095 -1.9716 0
M  V30 53 H 0.6708 5.6722 4.4691 0
M  V30 END ATOM
M  V30 BEGIN BOND
M  V30 1 2 1 2
M  V30 2 1 2 3
M  V30 3 1 2 4
M  V30 4 2 3 5
M  V30 5 1 3 6
M  V30 6 1 4 7
M  V30 7 1 4 8
M  V30 8 1 4 9
M  V30 9 1 5 10
M  V30 10 1 5 11
M  V30 11 1 6 12
M  V30 12 1 6 13
M  V30 13 1 8 14
M  V30 14 2 8 15
M  V30 15 1 9 16
M  V30 16 2 11 17
M  V30 17 1 11 18
M  V30 18 1 12 19
M  V30 19 1 15 20
M  V30 20 1 15 21
M  V30 21 1 16 22
M  V30 22 1 17 23
M  V30 23 1 17 24
M  V30 24 2 18 25
M  V30 25 2 20 26
M  V30 26 2 21 27
M  V30 27 1 21 28
M  V30 28 1 22 29
M  V30 29 1 22 30
M  V30 30 2 24 31
M  V30 31 1 9 13
M  V30 32 1 12 18
M  V30 33 1 16 20
M  V30 34 1 25 31
M  V30 35 1 6 32
M  V30 36 1 7 33
M  V30 37 1 9 34
M  V30 38 1 10 35
M  V30 39 1 12 36
M  V30 40 1 13 37
M  V30 41 1 13 38
M  V30 42 1 14 39
M  V30 43 1 16 40
M  V30 44 1 19 41
M  V30 45 1 23 42
M  V30 46 1 24 43
M  V30 47 1 25 44
M  V30 48 1 28 45
M  V30 49 1 28 46
M  V30 50 1 29 47
M  V30 51 1 29 48
M  V30 52 1 29 49
M  V30 53 1 30 50
M  V30 54 1 30 51
M  V30 55 1 30 52
M  V30 56 1 31 53
M  V30 END BOND
M  V30 BEGIN COLLECTION
M  V30 MDLV30/STEABS ATOMS=(5 4 6 9 12 16)
M  V30 END COLLECTION
M  V30 END CTAB
M  END
>  <level_0>
1786

>  <index>
1786

>  <NO.>
1787

>  <Name>
demecycline

>  <SMILES>
CN(C)[C@@H]1C(=O)C(C(N)=O)=C(O)[C@@]2(O)C(=O)C3=C(O)c4c(O)cccc4[C@@H](O)[C@H]3C[C@@H]12

>  <logBB>


>  <Class>
-1

>  <MW>
430.14

>  <nHBAcc>
9

>  <nHBDon>
6

>  <SLogP>
-0.55

>  <TopoPSA>
181.62

>  <MMFF94 Energy>
108.37

$$$$
CN(C)[C@@H]1C(=O)C(C(N)=O)=C(O)[C@@]2(O)C(=O)C3=C(O)c4c(O)cccc4[C@@](C)(O)[C@H]3C[C@@H]12
Actelion Java MolfileCreator 2.0

  0  0  0  0  0  0              0 V3000
M  V30 BEGIN CTAB
M  V30 COUNTS 56 59 0 0 0
M  V30 BEGIN ATOM
M  V30 1 O -2.7404 0.6443 2.0144 0
M  V30 2 C -1.8868 0.3977 1.162 0
M  V30 3 C -0.8564 1.4096 0.8496 0
M  V30 4 C -1.7407 -0.9663 0.4289 0 CFG=2
M  V30 5 C -0.0683 1.8818 1.8262 0
M  V30 6 C -0.6749 1.6658 -0.6069 0 CFG=1
M  V30 7 O -3.0497 -1.5464 0.4104 0
M  V30 8 C -0.863 -1.8775 1.2762 0
M  V30 9 C -1.2447 -0.787 -1.0315 0 CFG=1
M  V30 10 O -0.3136 1.6478 3.1608 0
M  V30 11 C 1.1855 2.5971 1.4669 0
M  V30 12 C 0.2079 2.917 -0.8736 0 CFG=1
M  V30 13 C -0.1819 0.3448 -1.2145 0
M  V30 14 O -1.2612 -1.9302 2.6122 0
M  V30 15 C 0.1832 -2.5884 0.7979 0
M  V30 16 C -0.6709 -2.1099 -1.6088 0 CFG=1
M  V30 17 C 2.2522 2.805 2.3664 0
M  V30 18 C 1.348 3.0538 0.1316 0
M  V30 19 O 0.7414 2.83 -2.2011 0
M  V30 20 C -0.6407 4.2035 -0.7962 0
M  V30 21 C 0.4609 -2.5498 -0.6685 0
M  V30 22 C 1.0003 -3.4145 1.7337 0
M  V30 23 N -1.6222 -3.2412 -1.7867 0
M  V30 24 O 2.1818 2.3478 3.6552 0
M  V30 25 C 3.4272 3.4539 1.9716 0
M  V30 26 C 2.5386 3.7063 -0.2476 0
M  V30 27 O 1.5579 -2.8993 -1.1131 0
M  V30 28 O 0.7049 -3.5346 2.9209 0
M  V30 29 N 2.0955 -4.0308 1.2248 0
M  V30 30 C -2.7678 -2.8749 -2.6276 0
M  V30 31 C -0.9649 -4.4144 -2.3847 0
M  V30 32 C 3.5694 3.9034 0.6648 0
M  V30 33 H -1.6574 1.8679 -1.0588 0
M  V30 34 H -3.3098 -1.6192 1.3519 0
M  V30 35 H -2.1013 -0.4782 -1.6451 0
M  V30 36 H -1.2176 1.2892 3.2681 0
M  V30 37 H 0.7805 0.0632 -0.7694 0
M  V30 38 H -0.0052 0.4706 -2.2897 0
M  V30 39 H -0.6618 -2.5341 3.1121 0
M  V30 40 H -0.2154 -1.8816 -2.5831 0
M  V30 41 H 0.0297 3.0431 -2.8279 0
M  V30 42 H -1.0702 4.3611 0.1989 0
M  V30 43 H -0.0417 5.0865 -1.0505 0
M  V30 44 H -1.4616 4.1744 -1.5224 0
M  V30 45 H 2.9639 2.633 4.1504 0
M  V30 46 H 4.2446 3.6062 2.6701 0
M  V30 47 H 2.6619 4.0692 -1.2666 0
M  V30 48 H 2.3738 -3.9143 0.2518 0
M  V30 49 H 2.6736 -4.5919 1.8343 0
M  V30 50 H -2.4527 -2.5048 -3.6098 0
M  V30 51 H -3.395 -2.1158 -2.1528 0
M  V30 52 H -3.4253 -3.7385 -2.783 0
M  V30 53 H -0.5108 -4.1813 -3.3545 0
M  V30 54 H -0.1937 -4.8229 -1.7243 0
M  V30 55 H -1.6862 -5.227 -2.5307 0
M  V30 56 H 4.4819 4.4056 0.3547 0
M  V30 END ATOM
M  V30 BEGIN BOND
M  V30 1 2 1 2
M  V30 2 1 2 3
M  V30 3 1 2 4
M  V30 4 2 3 5
M  V30 5 1 3 6
M  V30 6 1 4 7
M  V30 7 1 4 8
M  V30 8 1 4 9
M  V30 9 1 5 10
M  V30 10 1 5 11
M  V30 11 1 6 12
M  V30 12 1 6 13
M  V30 13 1 8 14
M  V30 14 2 8 15
M  V30 15 1 9 16
M  V30 16 2 11 17
M  V30 17 1 11 18
M  V30 18 1 12 19
M  V30 19 1 12 20
M  V30 20 1 15 21
M  V30 21 1 15 22
M  V30 22 1 16 23
M  V30 23 1 17 24
M  V30 24 1 17 25
M  V30 25 2 18 26
M  V30 26 2 21 27
M  V30 27 2 22 28
M  V30 28 1 22 29
M  V30 29 1 23 30
M  V30 30 1 23 31
M  V30 31 2 25 32
M  V30 32 1 9 13
M  V30 33 1 12 18
M  V30 34 1 16 21
M  V30 35 1 26 32
M  V30 36 1 6 33
M  V30 37 1 7 34
M  V30 38 1 9 35
M  V30 39 1 10 36
M  V30 40 1 13 37
M  V30 41 1 13 38
M  V30 42 1 14 39
M  V30 43 1 16 40
M  V30 44 1 19 41
M  V30 45 1 20 42
M  V30 46 1 20 43
M  V30 47 1 20 44
M  V30 48 1 24 45
M  V30 49 1 25 46
M  V30 50 1 26 47
M  V30 51 1 29 48
M  V30 52 1 29 49
M  V30 53 1 30 50
M  V30 54 1 30 51
M  V30 55 1 30 52
M  V30 56 1 31 53
M  V30 57 1 31 54
M  V30 58 1 31 55
M  V30 59 1 32 56
M  V30 END BOND
M  V30 BEGIN COLLECTION
M  V30 MDLV30/STEABS ATOMS=(5 4 6 9 12 16)
M  V30 END COLLECTION
M  V30 END CTAB
M  END
>  <level_0>
1787

>  <index>
1787

>  <NO.>
1788

>  <Name>
tetracycline

>  <SMILES>
CN(C)[C@@H]1C(=O)C(C(N)=O)=C(O)[C@@]2(O)C(=O)C3=C(O)c4c(O)cccc4[C@@](C)(O)[C@H]3C[C@@H]12

>  <logBB>


>  <Class>
-1

>  <MW>
444.15

>  <nHBAcc>
9

>  <nHBDon>
6

>  <SLogP>
-0.37

>  <TopoPSA>
181.62

>  <MMFF94 Energy>
116.37

$$$$
CN(C)[C@@H]1C(=O)C(C(N)=O)=C(O)[C@@]2(O)C(=O)C3=C(O)c4c(O)cccc4[C@@](C)(O)[C@H]3[C@H](O)[C@@H]12
Actelion Java MolfileCreator 2.0

  0  0  0  0  0  0              0 V3000
M  V30 BEGIN CTAB
M  V30 COUNTS 57 60 0 0 0
M  V30 BEGIN ATOM
M  V30 1 O 1.9352 2.5001 -0.4835 0
M  V30 2 C 1.1621 1.5517 -0.2941 0
M  V30 3 C 0.4394 0.9339 -1.4366 0
M  V30 4 C 0.9585 0.9826 1.118 0 CFG=2
M  V30 5 C 0.9323 1.1068 -2.6799 0
M  V30 6 C -0.8066 0.1093 -1.198 0 CFG=1
M  V30 7 O 1.3704 2.0177 2.0255 0
M  V30 8 C 1.8364 -0.199 1.439 0
M  V30 9 C -0.5147 0.6639 1.3494 0 CFG=1
M  V30 10 O 2.0955 1.7929 -2.9573 0
M  V30 11 C 0.2486 0.4951 -3.8456 0
M  V30 12 C -0.7944 -1.1264 -2.1816 0 CFG=1
M  V30 13 C -1.0383 -0.3176 0.2747 0 CFG=1
M  V30 14 O 2.8471 -0.459 0.5271 0
M  V30 15 C 1.6503 -0.9029 2.5766 0
M  V30 16 C -0.7622 0.0673 2.7711 0 CFG=1
M  V30 17 C 0.3971 0.9733 -5.164 0
M  V30 18 C -0.5774 -0.6366 -3.6222 0
M  V30 19 O 0.3089 -1.9766 -1.8164 0
M  V30 20 C -2.055 -1.9955 -2.0217 0
M  V30 21 O -2.4534 -0.4777 0.4761 0
M  V30 22 C 0.5073 -0.5005 3.4554 0
M  V30 23 C 2.5909 -2.0014 2.9268 0
M  V30 24 N -1.5835 0.9846 3.6154 0
M  V30 25 O 1.1011 2.1209 -5.4148 0
M  V30 26 C -0.1995 0.3233 -6.2451 0
M  V30 27 C -1.152 -1.29 -4.7305 0
M  V30 28 O 0.5688 -0.7454 4.6632 0
M  V30 29 O 3.4569 -2.382 2.1424 0
M  V30 30 N 2.4536 -2.5654 4.1515 0
M  V30 31 C -2.2536 0.2947 4.7203 0
M  V30 32 C -0.866 2.1586 4.1099 0
M  V30 33 C -0.9626 -0.8156 -6.0276 0
M  V30 34 H -1.658 0.7477 -1.4832 0
M  V30 35 H 2.126 2.4676 1.589 0
M  V30 36 H -1.0993 1.5912 1.2542 0
M  V30 37 H 2.3702 2.2858 -2.1556 0
M  V30 38 H -0.5905 -1.3031 0.4474 0
M  V30 39 H 3.3738 -1.2356 0.8341 0
M  V30 40 H -1.381 -0.8313 2.6378 0
M  V30 41 H 0.9676 -1.9452 -2.5343 0
M  V30 42 H -2.1489 -2.3967 -1.0078 0
M  V30 43 H -2.0084 -2.8944 -2.6467 0
M  V30 44 H -2.9655 -1.441 -2.271 0
M  V30 45 H -2.852 0.3838 0.7012 0
M  V30 46 H 1.2683 2.1987 -6.366 0
M  V30 47 H -0.0846 0.6972 -7.2579 0
M  V30 48 H -1.762 -2.1814 -4.6126 0
M  V30 49 H 1.7835 -2.2101 4.8326 0
M  V30 50 H 3.0805 -3.308 4.4283 0
M  V30 51 H -1.5699 -0.0192 5.5139 0
M  V30 52 H -2.8009 -0.584 4.3619 0
M  V30 53 H -3.0028 0.9551 5.1725 0
M  V30 54 H 0.0165 1.9016 4.7038 0
M  V30 55 H -0.5674 2.8105 3.2853 0
M  V30 56 H -1.5228 2.7718 4.7387 0
M  V30 57 H -1.4235 -1.3306 -6.867 0
M  V30 END ATOM
M  V30 BEGIN BOND
M  V30 1 2 1 2
M  V30 2 1 2 3
M  V30 3 1 2 4
M  V30 4 2 3 5
M  V30 5 1 3 6
M  V30 6 1 4 7
M  V30 7 1 4 8
M  V30 8 1 4 9
M  V30 9 1 5 10
M  V30 10 1 5 11
M  V30 11 1 6 12
M  V30 12 1 6 13
M  V30 13 1 8 14
M  V30 14 2 8 15
M  V30 15 1 9 16
M  V30 16 2 11 17
M  V30 17 1 11 18
M  V30 18 1 12 19
M  V30 19 1 12 20
M  V30 20 1 13 21
M  V30 21 1 15 22
M  V30 22 1 15 23
M  V30 23 1 16 24
M  V30 24 1 17 25
M  V30 25 1 17 26
M  V30 26 2 18 27
M  V30 27 2 22 28
M  V30 28 2 23 29
M  V30 29 1 23 30
M  V30 30 1 24 31
M  V30 31 1 24 32
M  V30 32 2 26 33
M  V30 33 1 9 13
M  V30 34 1 12 18
M  V30 35 1 16 22
M  V30 36 1 27 33
M  V30 37 1 6 34
M  V30 38 1 7 35
M  V30 39 1 9 36
M  V30 40 1 10 37
M  V30 41 1 13 38
M  V30 42 1 14 39
M  V30 43 1 16 40
M  V30 44 1 19 41
M  V30 45 1 20 42
M  V30 46 1 20 43
M  V30 47 1 20 44
M  V30 48 1 21 45
M  V30 49 1 25 46
M  V30 50 1 26 47
M  V30 51 1 27 48
M  V30 52 1 30 49
M  V30 53 1 30 50
M  V30 54 1 31 51
M  V30 55 1 31 52
M  V30 56 1 31 53
M  V30 57 1 32 54
M  V30 58 1 32 55
M  V30 59 1 32 56
M  V30 60 1 33 57
M  V30 END BOND
M  V30 BEGIN COLLECTION
M  V30 MDLV30/STEABS ATOMS=(6 4 6 9 12 13 16)
M  V30 END COLLECTION
M  V30 END CTAB
M  END
>  <level_0>
1788

>  <index>
1788

>  <NO.>
1789

>  <Name>
oxytetracycline dihydrate

>  <SMILES>
CN(C)[C@@H]1C(=O)C(C(N)=O)=C(O)[C@@]2(O)C(=O)C3=C(O)c4c(O)cccc4[C@@](C)(O)[C@H]3[C@H](O)[C@@H]12

>  <logBB>


>  <Class>
-1

>  <MW>
460.15

>  <nHBAcc>
10

>  <nHBDon>
7

>  <SLogP>
-1.4

>  <TopoPSA>
201.85

>  <MMFF94 Energy>
119.98

$$$$
CN(C)[C@@H]1C(=O)C(C(N)=O)=C(O)[C@@]2(O)C(=O)C3=C(O)c4c(ccc(N)c4O)C[C@H]3C[C@@H]12
Actelion Java MolfileCreator 2.0

  0  0  0  0  0  0              0 V3000
M  V30 BEGIN CTAB
M  V30 COUNTS 54 57 0 0 0
M  V30 BEGIN ATOM
M  V30 1 O 0.3214 1.3666 2.9763 0
M  V30 2 C -0.2672 1.295 1.899 0
M  V30 3 C 0.4453 1.6397 0.6337 0
M  V30 4 C -1.7266 0.7811 1.704 0 CFG=2
M  V30 5 C 1.7565 1.3893 0.4928 0
M  V30 6 C -0.4627 2.0847 -0.4642 0 CFG=1
M  V30 7 O -2.6167 1.9009 1.6493 0
M  V30 8 C -2.1408 -0.0739 2.8812 0
M  V30 9 C -1.8376 0.0203 0.3585 0 CFG=1
M  V30 10 O 2.5554 0.9938 1.5434 0
M  V30 11 C 2.3707 1.4302 -0.8593 0
M  V30 12 C 0.2944 2.6618 -1.6683 0
M  V30 13 C -1.4179 0.934 -0.8346 0
M  V30 14 O -2.6338 0.6878 3.9442 0
M  V30 15 C -2.1053 -1.4245 2.8873 0
M  V30 16 C -1.0583 -1.3209 0.474 0 CFG=1
M  V30 17 C 3.6348 0.8955 -1.1725 0
M  V30 18 C 1.6397 2.0215 -1.916 0
M  V30 19 C -1.6021 -2.1503 1.6762 0
M  V30 20 C -2.5801 -2.1464 4.1097 0
M  V30 21 N -1.0511 -2.2097 -0.705 0
M  V30 22 O 4.4325 0.3338 -0.2044 0
M  V30 23 C 4.1602 0.9139 -2.4803 0
M  V30 24 C 2.194 2.1104 -3.2045 0
M  V30 25 O -1.5853 -3.3855 1.6887 0
M  V30 26 O -3.0026 -1.543 5.0947 0
M  V30 27 N -2.531 -3.4998 4.0977 0
M  V30 28 C -2.2748 -2.2978 -1.4797 0
M  V30 29 C 0.1597 -2.1659 -1.5095 0
M  V30 30 N 5.4203 0.3733 -2.748 0
M  V30 31 C 3.449 1.5705 -3.4786 0
M  V30 32 H -1.0805 2.9118 -0.0868 0
M  V30 33 H -2.7935 2.1292 2.5873 0
M  V30 34 H -2.9001 -0.2182 0.1972 0
M  V30 35 H 2.0657 1.1277 2.3819 0
M  V30 36 H -0.3328 2.5961 -2.566 0
M  V30 37 H 0.4809 3.7299 -1.4903 0
M  V30 38 H -2.3298 1.39 -1.2457 0
M  V30 39 H -1.0059 0.3527 -1.6592 0
M  V30 40 H -2.8661 0.0877 4.6937 0
M  V30 41 H -0.0158 -1.1229 0.7533 0
M  V30 42 H 5.3391 0.5676 -0.4688 0
M  V30 43 H 1.6485 2.6082 -4.0037 0
M  V30 44 H -2.1835 -4.0124 3.2865 0
M  V30 45 H -2.8392 -4.0193 4.9072 0
M  V30 46 H -2.4544 -1.4065 -2.088 0
M  V30 47 H -3.1427 -2.4547 -0.83 0
M  V30 48 H -2.2384 -3.1598 -2.1552 0
M  V30 49 H 0.2629 -1.2419 -2.0827 0
M  V30 50 H 1.0507 -2.2799 -0.882 0
M  V30 51 H 0.1781 -3.0015 -2.2182 0
M  V30 52 H 5.7452 0.3795 -3.7071 0
M  V30 53 H 5.6963 -0.4329 -2.1974 0
M  V30 54 H 3.8539 1.6513 -4.4832 0
M  V30 END ATOM
M  V30 BEGIN BOND
M  V30 1 2 1 2
M  V30 2 1 2 3
M  V30 3 1 2 4
M  V30 4 2 3 5
M  V30 5 1 3 6
M  V30 6 1 4 7
M  V30 7 1 4 8
M  V30 8 1 4 9
M  V30 9 1 5 10
M  V30 10 1 5 11
M  V30 11 1 6 12
M  V30 12 1 6 13
M  V30 13 1 8 14
M  V30 14 2 8 15
M  V30 15 1 9 16
M  V30 16 2 11 17
M  V30 17 1 11 18
M  V30 18 1 15 19
M  V30 19 1 15 20
M  V30 20 1 16 21
M  V30 21 1 17 22
M  V30 22 1 17 23
M  V30 23 2 18 24
M  V30 24 2 19 25
M  V30 25 2 20 26
M  V30 26 1 20 27
M  V30 27 1 21 28
M  V30 28 1 21 29
M  V30 29 1 23 30
M  V30 30 2 23 31
M  V30 31 1 9 13
M  V30 32 1 12 18
M  V30 33 1 16 19
M  V30 34 1 24 31
M  V30 35 1 6 32
M  V30 36 1 7 33
M  V30 37 1 9 34
M  V30 38 1 10 35
M  V30 39 1 12 36
M  V30 40 1 12 37
M  V30 41 1 13 38
M  V30 42 1 13 39
M  V30 43 1 14 40
M  V30 44 1 16 41
M  V30 45 1 22 42
M  V30 46 1 24 43
M  V30 47 1 27 44
M  V30 48 1 27 45
M  V30 49 1 28 46
M  V30 50 1 28 47
M  V30 51 1 28 48
M  V30 52 1 29 49
M  V30 53 1 29 50
M  V30 54 1 29 51
M  V30 55 1 30 52
M  V30 56 1 30 53
M  V30 57 1 31 54
M  V30 END BOND
M  V30 BEGIN COLLECTION
M  V30 MDLV30/STEABS ATOMS=(4 4 6 9 16)
M  V30 END COLLECTION
M  V30 END CTAB
M  END
>  <level_0>
1789

>  <index>
1789

>  <NO.>
1790

>  <Name>
amicycline

>  <SMILES>
CN(C)[C@@H]1C(=O)C(C(N)=O)=C(O)[C@@]2(O)C(=O)C3=C(O)c4c(ccc(N)c4O)C[C@H]3C[C@@H]12

>  <logBB>


>  <Class>
-1

>  <MW>
429.15

>  <nHBAcc>
9

>  <nHBDon>
6

>  <SLogP>
-0.45

>  <TopoPSA>
187.41

>  <MMFF94 Energy>
109.95

$$$$
CN(C/C=C/c1ccccc1)CCOC(c1ccccc1)c1ccccc1
Actelion Java MolfileCreator 2.0

  0  0  0  0  0  0              0 V3000
M  V30 BEGIN CTAB
M  V30 COUNTS 54 56 0 0 0
M  V30 BEGIN ATOM
M  V30 1 O -0.237 -0.9485 -1.6604 0
M  V30 2 C 0.181 -2.2232 -2.1739 0
M  V30 3 C 0.7235 0.0855 -1.8904 0
M  V30 4 C -0.4749 -3.3424 -1.3718 0
M  V30 5 C -0.1357 -2.3138 -3.659 0
M  V30 6 C 0.2299 1.4023 -1.2638 0
M  V30 7 C 0.0888 -4.6301 -1.3824 0
M  V30 8 C -1.6488 -3.1352 -0.6289 0
M  V30 9 C -1.4067 -1.9739 -4.1501 0
M  V30 10 C 0.8422 -2.7498 -4.5672 0
M  V30 11 N 0.5588 1.5722 0.1725 0
M  V30 12 C -0.4986 -5.6739 -0.6644 0
M  V30 13 C -2.2347 -4.1796 0.0893 0
M  V30 14 C -1.6907 -2.0634 -5.5134 0
M  V30 15 C 0.556 -2.8383 -5.9309 0
M  V30 16 C 0.1108 2.9021 0.6201 0
M  V30 17 C -0.0579 0.516 0.9857 0
M  V30 18 C -1.6591 -5.4477 0.0719 0
M  V30 19 C -0.7093 -2.4948 -6.403 0
M  V30 20 C 0.7207 3.2815 1.9391 0
M  V30 21 C 0.011 3.675 3.0097 0
M  V30 22 C 0.6045 4.0502 4.3003 0
M  V30 23 C 1.7161 3.3848 4.8336 0
M  V30 24 C 0.0053 5.0697 5.0518 0
M  V30 25 C 2.2335 3.7493 6.0796 0
M  V30 26 C 0.5228 5.4348 6.2974 0
M  V30 27 C 1.6383 4.7759 6.8097 0
M  V30 28 H 1.2643 -2.3146 -2.0131 0
M  V30 29 H 0.8336 0.2311 -2.971 0
M  V30 30 H 1.7002 -0.1942 -1.4778 0
M  V30 31 H 0.7258 2.2127 -1.8131 0
M  V30 32 H -0.8516 1.5042 -1.4216 0
M  V30 33 H 0.9907 -4.8287 -1.9569 0
M  V30 34 H -2.1148 -2.1522 -0.6056 0
M  V30 35 H -2.1811 -1.6368 -3.4638 0
M  V30 36 H 1.8348 -3.025 -4.2181 0
M  V30 37 H -0.0517 -6.6643 -0.6828 0
M  V30 38 H -3.1418 -4.0014 0.6606 0
M  V30 39 H -2.6792 -1.7984 -5.8793 0
M  V30 40 H 1.3199 -3.1777 -6.6255 0
M  V30 41 H -0.9851 2.9599 0.6496 0
M  V30 42 H 0.4471 3.6627 -0.0966 0
M  V30 43 H 0.1389 0.6654 2.0529 0
M  V30 44 H -1.1435 0.4663 0.8438 0
M  V30 45 H 0.3741 -0.4615 0.7508 0
M  V30 46 H -2.1169 -6.2602 0.6298 0
M  V30 47 H -0.9319 -2.5661 -7.4643 0
M  V30 48 H 1.8063 3.2376 1.98 0
M  V30 49 H -1.0726 3.7429 2.9496 0
M  V30 50 H 2.1846 2.5682 4.2896 0
M  V30 51 H -0.8661 5.5958 4.6692 0
M  V30 52 H 3.0979 3.2267 6.4803 0
M  V30 53 H 0.0535 6.2328 6.8668 0
M  V30 54 H 2.0406 5.0586 7.7789 0
M  V30 END ATOM
M  V30 BEGIN BOND
M  V30 1 1 1 2
M  V30 2 1 1 3
M  V30 3 1 2 4
M  V30 4 1 2 5
M  V30 5 1 3 6
M  V30 6 2 4 7
M  V30 7 1 4 8
M  V30 8 2 5 9
M  V30 9 1 5 10
M  V30 10 1 6 11
M  V30 11 1 7 12
M  V30 12 2 8 13
M  V30 13 1 9 14
M  V30 14 2 10 15
M  V30 15 1 11 16
M  V30 16 1 11 17
M  V30 17 2 12 18
M  V30 18 2 14 19
M  V30 19 1 16 20
M  V30 20 2 20 21
M  V30 21 1 21 22
M  V30 22 2 22 23
M  V30 23 1 22 24
M  V30 24 1 23 25
M  V30 25 2 24 26
M  V30 26 2 25 27
M  V30 27 1 13 18
M  V30 28 1 15 19
M  V30 29 1 26 27
M  V30 30 1 2 28
M  V30 31 1 3 29
M  V30 32 1 3 30
M  V30 33 1 6 31
M  V30 34 1 6 32
M  V30 35 1 7 33
M  V30 36 1 8 34
M  V30 37 1 9 35
M  V30 38 1 10 36
M  V30 39 1 12 37
M  V30 40 1 13 38
M  V30 41 1 14 39
M  V30 42 1 15 40
M  V30 43 1 16 41
M  V30 44 1 16 42
M  V30 45 1 17 43
M  V30 46 1 17 44
M  V30 47 1 17 45
M  V30 48 1 18 46
M  V30 49 1 19 47
M  V30 50 1 20 48
M  V30 51 1 21 49
M  V30 52 1 23 50
M  V30 53 1 24 51
M  V30 54 1 25 52
M  V30 55 1 26 53
M  V30 56 1 27 54
M  V30 END BOND
M  V30 END CTAB
M  END
>  <level_0>
1791

>  <index>
1791

>  <NO.>
1792

>  <Name>
cinfenine

>  <SMILES>
CN(C/C=C/c1ccccc1)CCOC(c1ccccc1)c1ccccc1

>  <logBB>


>  <Class>
1

>  <MW>
357.21

>  <nHBAcc>
2

>  <nHBDon>
0

>  <SLogP>
5.44

>  <TopoPSA>
12.47

>  <MMFF94 Energy>
91.425

$$$$
CN(CCCN1c2ccccc2CCc2ccccc21)CC(=O)c1ccc(Cl)cc1
Actelion Java MolfileCreator 2.0

  0  0  0  0  0  0              0 V3000
M  V30 BEGIN CTAB
M  V30 COUNTS 57 60 0 0 0
M  V30 BEGIN ATOM
M  V30 1 Cl -8.6914 -1.9264 -3.4535 0
M  V30 2 C -7.214 -1.1318 -3.0756 0
M  V30 3 C -6.7963 -0.0445 -3.8375 0
M  V30 4 C -6.4413 -1.5793 -2.0054 0
M  V30 5 C -5.5946 0.5981 -3.5265 0
M  V30 6 C -5.2374 -0.9369 -1.6924 0
M  V30 7 C -4.803 0.1563 -2.4543 0
M  V30 8 C -3.5242 0.8835 -2.1683 0
M  V30 9 O -3.301 1.9225 -2.7882 0
M  V30 10 C -2.5819 0.2878 -1.1118 0
M  V30 11 N -1.2867 0.9893 -1.0446 0
M  V30 12 C -0.571 0.7587 0.2225 0
M  V30 13 C -0.4471 0.7139 -2.2098 0
M  V30 14 C -0.1974 -0.6977 0.5359 0
M  V30 15 C 0.4559 -0.8559 1.9186 0
M  V30 16 N 1.8665 -0.4004 1.9413 0
M  V30 17 C 2.7734 -1.3275 1.3749 0
M  V30 18 C 2.1414 0.9231 2.3581 0
M  V30 19 C 3.5409 -1.0192 0.243 0
M  V30 20 C 2.9162 -2.6063 1.9443 0
M  V30 21 C 3.1006 1.7657 1.7541 0
M  V30 22 C 1.4692 1.4344 3.4947 0
M  V30 23 C 4.4053 -1.9812 -0.3085 0
M  V30 24 C 3.4372 0.3402 -0.3852 0
M  V30 25 C 3.7794 -3.5572 1.3969 0
M  V30 26 C 3.3293 3.0596 2.2857 0
M  V30 27 C 3.9619 1.4096 0.5607 0
M  V30 28 C 1.695 2.7188 3.9966 0
M  V30 29 C 4.5214 -3.2449 0.2652 0
M  V30 30 C 2.627 3.5369 3.3866 0
M  V30 31 H -7.3965 0.3107 -4.6712 0
M  V30 32 H -6.772 -2.4262 -1.4087 0
M  V30 33 H -5.278 1.4497 -4.1278 0
M  V30 34 H -4.6687 -1.3089 -0.8455 0
M  V30 35 H -2.4276 -0.7758 -1.3247 0
M  V30 36 H -3.0984 0.3943 -0.15 0
M  V30 37 H -1.192 1.1511 1.0384 0
M  V30 38 H 0.3268 1.3858 0.2239 0
M  V30 39 H 0.4915 1.2755 -2.1489 0
M  V30 40 H -0.2064 -0.3496 -2.3096 0
M  V30 41 H -0.9305 1.0341 -3.1379 0
M  V30 42 H 0.4538 -1.1079 -0.2424 0
M  V30 43 H -1.1082 -1.3084 0.5383 0
M  V30 44 H -0.172 -0.3513 2.6592 0
M  V30 45 H 0.3949 -1.915 2.1991 0
M  V30 46 H 2.3666 -2.8609 2.8469 0
M  V30 47 H 0.7792 0.8088 4.0542 0
M  V30 48 H 4.999 -1.7451 -1.1886 0
M  V30 49 H 2.4048 0.5385 -0.6907 0
M  V30 50 H 4.0338 0.3658 -1.3058 0
M  V30 51 H 3.8757 -4.5346 1.8612 0
M  V30 52 H 4.0736 3.7094 1.8276 0
M  V30 53 H 4.0911 2.3181 -0.0436 0
M  V30 54 H 4.9578 1.133 0.932 0
M  V30 55 H 1.1554 3.0628 4.8745 0
M  V30 56 H 5.1971 -3.9789 -0.1649 0
M  V30 57 H 2.821 4.5342 3.7705 0
M  V30 END ATOM
M  V30 BEGIN BOND
M  V30 1 1 1 2
M  V30 2 2 2 3
M  V30 3 1 2 4
M  V30 4 1 3 5
M  V30 5 2 4 6
M  V30 6 2 5 7
M  V30 7 1 7 8
M  V30 8 2 8 9
M  V30 9 1 8 10
M  V30 10 1 10 11
M  V30 11 1 11 12
M  V30 12 1 11 13
M  V30 13 1 12 14
M  V30 14 1 14 15
M  V30 15 1 15 16
M  V30 16 1 16 17
M  V30 17 1 16 18
M  V30 18 2 17 19
M  V30 19 1 17 20
M  V30 20 2 18 21
M  V30 21 1 18 22
M  V30 22 1 19 23
M  V30 23 1 19 24
M  V30 24 2 20 25
M  V30 25 1 21 26
M  V30 26 1 21 27
M  V30 27 2 22 28
M  V30 28 2 23 29
M  V30 29 2 26 30
M  V30 30 1 6 7
M  V30 31 1 24 27
M  V30 32 1 25 29
M  V30 33 1 28 30
M  V30 34 1 3 31
M  V30 35 1 4 32
M  V30 36 1 5 33
M  V30 37 1 6 34
M  V30 38 1 10 35
M  V30 39 1 10 36
M  V30 40 1 12 37
M  V30 41 1 12 38
M  V30 42 1 13 39
M  V30 43 1 13 40
M  V30 44 1 13 41
M  V30 45 1 14 42
M  V30 46 1 14 43
M  V30 47 1 15 44
M  V30 48 1 15 45
M  V30 49 1 20 46
M  V30 50 1 22 47
M  V30 51 1 23 48
M  V30 52 1 24 49
M  V30 53 1 24 50
M  V30 54 1 25 51
M  V30 55 1 26 52
M  V30 56 1 27 53
M  V30 57 1 27 54
M  V30 58 1 28 55
M  V30 59 1 29 56
M  V30 60 1 30 57
M  V30 END BOND
M  V30 END CTAB
M  END
>  <level_0>
1792

>  <index>
1792

>  <NO.>
1793

>  <Name>
lofepramine

>  <SMILES>
CN(CCCN1c2ccccc2CCc2ccccc21)CC(=O)c1ccc(Cl)cc1

>  <logBB>


>  <Class>
1

>  <MW>
418.18

>  <nHBAcc>
3

>  <nHBDon>
0

>  <SLogP>
5.78

>  <TopoPSA>
23.55

>  <MMFF94 Energy>
133.16

$$$$
CN(CCN(C)CNC(=O)C1=C(O)[C@@]2(O)C(=O)C3=C(O)c4c(O)cccc4[C@@](C)(O)[C@H]3C[C@H]2[C@H](N(C)C)C1=O)CNC(=O)C1=C(O)[C@@]2(O)C(=O)C3=C(O)c4c(O)cccc4[C@@](C)(O)[C@H]3C[C@H]2[C@H](N(C)C)C1=O
Actelion Java MolfileCreator 2.0

  0  0  0  0  0  0              0 V3000
M  V30 BEGIN CTAB
M  V30 COUNTS 132 139 0 0 0
M  V30 BEGIN ATOM
M  V30 1 O 4.5842 -8.7802 0.4817 0
M  V30 2 C 4.5837 -7.7627 1.1753 0
M  V30 3 C 5.7991 -6.9254 1.2394 0
M  V30 4 C 3.3447 -7.2165 1.9409 0 CFG=2
M  V30 5 C 6.3238 -6.4244 0.1119 0
M  V30 6 C 6.2156 -6.5604 2.6227 0 CFG=1
M  V30 7 O 2.5289 -8.3565 2.2342 0
M  V30 8 C 2.5464 -6.3305 0.9933 0
M  V30 9 C 3.7449 -6.5251 3.2725 0 CFG=1
M  V30 10 O 5.9274 -6.8346 -1.1412 0
M  V30 11 C 7.2966 -5.3022 0.1988 0
M  V30 12 C 7.6336 -5.9245 2.6555 0 CFG=1
M  V30 13 C 5.0763 -5.7082 3.1998 0
M  V30 14 O 2.2897 -6.9418 -0.234 0
M  V30 15 C 2.1028 -5.0889 1.2983 0
M  V30 16 C 2.6162 -5.5946 3.7941 0 CFG=1
M  V30 17 C 7.6224 -4.4639 -0.888 0
M  V30 18 C 7.8962 -5.019 1.4552 0
M  V30 19 O 7.7742 -5.1735 3.8684 0
M  V30 20 C 8.718 -7.0223 2.6601 0
M  V30 21 C 2.3374 -4.575 2.6804 0
M  V30 22 C 1.3667 -4.2917 0.2681 0
M  V30 23 N 1.3359 -6.2394 4.1953 0
M  V30 24 O 7.0432 -4.6496 -2.1148 0
M  V30 25 C 8.519 -3.3988 -0.7483 0
M  V30 26 C 8.798 -3.9422 1.5767 0
M  V30 27 O 2.2748 -3.368 2.9271 0
M  V30 28 O 1.0801 -4.7857 -0.8229 0
M  V30 29 N 1.0443 -3.0112 0.6041 0
M  V30 30 C 1.5327 -7.2698 5.2214 0
M  V30 31 C 0.3691 -5.254 4.7063 0
M  V30 32 C 9.1054 -3.1388 0.484 0
M  V30 33 C 0.3308 -2.1461 -0.2792 0
M  V30 34 N 0.3972 -0.8134 0.3098 0
M  V30 35 C -0.6845 0.0227 -0.2546 0
M  V30 36 C 1.716 -0.213 0.0748 0
M  V30 37 C -0.8337 1.4382 0.367 0
M  V30 38 N 0.0743 2.4839 -0.1326 0
M  V30 39 C 0.0446 2.7446 -1.5622 0
M  V30 40 C -0.0094 3.7062 0.6609 0
M  V30 41 N -1.2557 3.1904 -1.956 0
M  V30 42 C -1.5014 3.6236 -3.237 0
M  V30 43 O -0.6767 3.6154 -4.1393 0
M  V30 44 C -2.8947 4.0777 -3.4389 0
M  V30 45 C -3.9398 3.2809 -3.1356 0
M  V30 46 C -3.1563 5.4299 -3.9966 0
M  V30 47 O -3.7889 1.9508 -2.7502 0
M  V30 48 C -5.3887 3.7392 -3.1972 0 CFG=1
M  V30 49 O -2.3273 6.3327 -3.8832 0
M  V30 50 C -4.52 5.6678 -4.6626 0 CFG=2
M  V30 51 O -6.0515 2.9067 -4.1549 0
M  V30 52 C -6.0365 3.451 -1.8192 0
M  V30 53 C -5.5834 5.23 -3.6111 0 CFG=2
M  V30 54 N -4.5517 4.9804 -5.98 0
M  V30 55 O -6.7002 2.4466 -1.5694 0
M  V30 56 C -5.8427 4.5115 -0.8049 0
M  V30 57 C -5.5611 6.261 -2.4299 0
M  V30 58 C -3.498 5.484 -6.8764 0
M  V30 59 C -5.8474 5.1341 -6.6506 0
M  V30 60 C -5.0543 4.3248 0.2602 0
M  V30 61 C -6.4206 5.8181 -1.2313 0 CFG=2
M  V30 62 O -4.4247 3.1173 0.4728 0
M  V30 63 C -4.7268 5.4634 1.1555 0
M  V30 64 C -6.5117 6.842 -0.0609 0 CFG=1
M  V30 65 C -3.7736 5.3719 2.1925 0
M  V30 66 C -5.3897 6.6999 0.9697 0
M  V30 67 O -6.5127 8.1648 -0.6138 0
M  V30 68 C -7.8566 6.6717 0.6698 0
M  V30 69 O -3.1348 4.1758 2.4246 0
M  V30 70 C -3.4632 6.4621 3.0076 0
M  V30 71 C -5.079 7.7879 1.8138 0
M  V30 72 C -4.1171 7.6725 2.814 0
M  V30 73 H 6.2617 -7.4733 3.2349 0
M  V30 74 H 2.3172 -8.7492 1.3623 0
M  V30 75 H 3.9287 -7.3082 4.0199 0
M  V30 76 H 5.3938 -7.651 -1.0631 0
M  V30 77 H 5.329 -5.3847 4.2171 0
M  V30 78 H 4.9519 -4.7958 2.6032 0
M  V30 79 H 1.7666 -6.3287 -0.8036 0
M  V30 80 H 3.0103 -5.0372 4.6561 0
M  V30 81 H 7.8929 -5.8013 4.6009 0
M  V30 82 H 8.5964 -7.6879 3.5228 0
M  V30 83 H 9.7199 -6.5856 2.7524 0
M  V30 84 H 8.6973 -7.6332 1.7513 0
M  V30 85 H 7.4301 -4.0384 -2.759 0
M  V30 86 H 8.7607 -2.7564 -1.5898 0
M  V30 87 H 9.2694 -3.7298 2.5348 0
M  V30 88 H 1.2917 -2.6327 1.5149 0
M  V30 89 H 2.0339 -6.8712 6.1109 0
M  V30 90 H 2.1131 -8.1152 4.8429 0
M  V30 91 H 0.5708 -7.694 5.5329 0
M  V30 92 H 0.7643 -4.6962 5.5629 0
M  V30 93 H 0.0724 -4.5419 3.9298 0
M  V30 94 H -0.5573 -5.7501 5.0187 0
M  V30 95 H 9.8002 -2.3106 0.5959 0
M  V30 96 H 0.7455 -2.1966 -1.2934 0
M  V30 97 H -0.6967 -2.5274 -0.3127 0
M  V30 98 H -1.6343 -0.4872 -0.041 0
M  V30 99 H -0.6174 0.0731 -1.3475 0
M  V30 100 H 1.8375 0.704 0.6584 0
M  V30 101 H 1.8853 0.0116 -0.9842 0
M  V30 102 H 2.5232 -0.8743 0.4104 0
M  V30 103 H -1.8759 1.7547 0.2352 0
M  V30 104 H -0.6983 1.3336 1.4523 0
M  V30 105 H 0.3061 1.858 -2.1484 0
M  V30 106 H 0.781 3.51 -1.8373 0
M  V30 107 H 0.1818 3.4935 1.7188 0
M  V30 108 H -0.9887 4.1897 0.5839 0
M  V30 109 H 0.7551 4.4266 0.3492 0
M  V30 110 H -1.9754 3.2609 -1.2499 0
M  V30 111 H -2.8783 1.6469 -2.9221 0
M  V30 112 H -4.6235 6.7499 -4.8269 0
M  V30 113 H -6.031 2.0079 -3.7671 0
M  V30 114 H -6.5833 5.3278 -4.0545 0
M  V30 115 H -4.5357 6.4493 -2.088 0
M  V30 116 H -5.9334 7.2162 -2.8218 0
M  V30 117 H -3.5863 6.5629 -7.0482 0
M  V30 118 H -2.4991 5.2727 -6.4816 0
M  V30 119 H -3.5455 4.9771 -7.8473 0
M  V30 120 H -6.1159 6.188 -6.7867 0
M  V30 121 H -6.651 4.6381 -6.0998 0
M  V30 122 H -5.8307 4.6557 -7.6369 0
M  V30 123 H -7.4383 5.6609 -1.6173 0
M  V30 124 H -3.9545 3.1783 1.3303 0
M  V30 125 H -5.588 8.4599 -0.6867 0
M  V30 126 H -7.9545 5.6815 1.1282 0
M  V30 127 H -7.9802 7.424 1.4583 0
M  V30 128 H -8.6961 6.8189 -0.0199 0
M  V30 129 H -2.5751 4.2747 3.2173 0
M  V30 130 H -2.7251 6.3858 3.8007 0
M  V30 131 H -5.6102 8.7338 1.7077 0
M  V30 132 H -3.8934 8.5237 3.4532 0
M  V30 END ATOM
M  V30 BEGIN BOND
M  V30 1 2 1 2
M  V30 2 1 2 3
M  V30 3 1 2 4
M  V30 4 2 3 5
M  V30 5 1 3 6
M  V30 6 1 4 7
M  V30 7 1 4 8
M  V30 8 1 4 9
M  V30 9 1 5 10
M  V30 10 1 5 11
M  V30 11 1 6 12
M  V30 12 1 6 13
M  V30 13 1 8 14
M  V30 14 2 8 15
M  V30 15 1 9 16
M  V30 16 2 11 17
M  V30 17 1 11 18
M  V30 18 1 12 19
M  V30 19 1 12 20
M  V30 20 1 15 21
M  V30 21 1 15 22
M  V30 22 1 16 23
M  V30 23 1 17 24
M  V30 24 1 17 25
M  V30 25 2 18 26
M  V30 26 2 21 27
M  V30 27 2 22 28
M  V30 28 1 22 29
M  V30 29 1 23 30
M  V30 30 1 23 31
M  V30 31 2 25 32
M  V30 32 1 29 33
M  V30 33 1 33 34
M  V30 34 1 34 35
M  V30 35 1 34 36
M  V30 36 1 35 37
M  V30 37 1 37 38
M  V30 38 1 38 39
M  V30 39 1 38 40
M  V30 40 1 39 41
M  V30 41 1 41 42
M  V30 42 2 42 43
M  V30 43 1 42 44
M  V30 44 2 44 45
M  V30 45 1 44 46
M  V30 46 1 45 47
M  V30 47 1 45 48
M  V30 48 2 46 49
M  V30 49 1 46 50
M  V30 50 1 48 51
M  V30 51 1 48 52
M  V30 52 1 48 53
M  V30 53 1 50 54
M  V30 54 2 52 55
M  V30 55 1 52 56
M  V30 56 1 53 57
M  V30 57 1 54 58
M  V30 58 1 54 59
M  V30 59 2 56 60
M  V30 60 1 56 61
M  V30 61 1 60 62
M  V30 62 1 60 63
M  V30 63 1 61 64
M  V30 64 2 63 65
M  V30 65 1 63 66
M  V30 66 1 64 67
M  V30 67 1 64 68
M  V30 68 1 65 69
M  V30 69 1 65 70
M  V30 70 2 66 71
M  V30 71 2 70 72
M  V30 72 1 9 13
M  V30 73 1 12 18
M  V30 74 1 16 21
M  V30 75 1 26 32
M  V30 76 1 50 53
M  V30 77 1 57 61
M  V30 78 1 64 66
M  V30 79 1 71 72
M  V30 80 1 6 73
M  V30 81 1 7 74
M  V30 82 1 9 75
M  V30 83 1 10 76
M  V30 84 1 13 77
M  V30 85 1 13 78
M  V30 86 1 14 79
M  V30 87 1 16 80
M  V30 88 1 19 81
M  V30 89 1 20 82
M  V30 90 1 20 83
M  V30 91 1 20 84
M  V30 92 1 24 85
M  V30 93 1 25 86
M  V30 94 1 26 87
M  V30 95 1 29 88
M  V30 96 1 30 89
M  V30 97 1 30 90
M  V30 98 1 30 91
M  V30 99 1 31 92
M  V30 100 1 31 93
M  V30 101 1 31 94
M  V30 102 1 32 95
M  V30 103 1 33 96
M  V30 104 1 33 97
M  V30 105 1 35 98
M  V30 106 1 35 99
M  V30 107 1 36 100
M  V30 108 1 36 101
M  V30 109 1 36 102
M  V30 110 1 37 103
M  V30 111 1 37 104
M  V30 112 1 39 105
M  V30 113 1 39 106
M  V30 114 1 40 107
M  V30 115 1 40 108
M  V30 116 1 40 109
M  V30 117 1 41 110
M  V30 118 1 47 111
M  V30 119 1 50 112
M  V30 120 1 51 113
M  V30 121 1 53 114
M  V30 122 1 57 115
M  V30 123 1 57 116
M  V30 124 1 58 117
M  V30 125 1 58 118
M  V30 126 1 58 119
M  V30 127 1 59 120
M  V30 128 1 59 121
M  V30 129 1 59 122
M  V30 130 1 61 123
M  V30 131 1 62 124
M  V30 132 1 67 125
M  V30 133 1 68 126
M  V30 134 1 68 127
M  V30 135 1 68 128
M  V30 136 1 69 129
M  V30 137 1 70 130
M  V30 138 1 71 131
M  V30 139 1 72 132
M  V30 END BOND
M  V30 BEGIN COLLECTION
M  V30 MDLV30/STEABS ATOMS=(10 4 6 9 12 16 48 50 53 61 64)
M  V30 END COLLECTION
M  V30 END CTAB
M  END
>  <level_0>
1793

>  <index>
1793

>  <NO.>
1794

>  <Name>
etamocycline

>  <SMILES>
CN(CCN(C)CNC(=O)C1=C(O)[C@@]2(O)C(=O)C3=C(O)c4c(O)cccc4[C@@](C)(O)[C@H]3C[C@H]2[C@H](N(C)C)C1=O)CNC(=O)C1=C(O)[C@@]2(O)C(=O)C3=C(O)c4c(O)cccc4[C@@](C)(O)[C@H]3C[C@H]2[C@H](N(C)C)C1=O

>  <logBB>


>  <Class>
-1

>  <MW>
1000.41

>  <nHBAcc>
20

>  <nHBDon>
12

>  <SLogP>
-0.69

>  <TopoPSA>
341.74

>  <MMFF94 Energy>
192.15

$$$$
CN(CCc1cc2cccc3c2n1-c1ccccc1CC3)Cc1ccccc1
Actelion Java MolfileCreator 2.0

  0  0  0  0  0  0              0 V3000
M  V30 BEGIN CTAB
M  V30 COUNTS 54 58 0 0 0
M  V30 BEGIN ATOM
M  V30 1 N 1.8386 0.9589 1.1988 0
M  V30 2 C 0.7337 1.7946 1.5396 0
M  V30 3 C 2.8489 0.5574 2.0753 0
M  V30 4 C 2.1176 0.4314 -0.0608 0
M  V30 5 C 0.0145 1.6156 2.7336 0
M  V30 6 C 0.4023 2.8517 0.6768 0
M  V30 7 C 2.9306 0.5959 3.4856 0
M  V30 8 C 3.9001 0.075 1.2908 0
M  V30 9 C 3.4299 2.0E-4 -0.0419 0
M  V30 10 C 1.1387 0.3392 -1.2011 0
M  V30 11 C -1.0888 2.4504 2.9882 0
M  V30 12 C 0.4153 0.6064 3.7805 0
M  V30 13 C -0.69 3.6744 0.95 0
M  V30 14 C 4.1689 0.2487 4.061 0
M  V30 15 C 1.7772 0.9612 4.3864 0
M  V30 16 C 5.1158 -0.2834 1.9028 0
M  V30 17 C -0.0283 -0.6163 -0.8822 0
M  V30 18 C -1.4448 3.4637 2.0979 0
M  V30 19 C 5.2452 -0.1722 3.2869 0
M  V30 20 N -0.9654 -0.7965 -2.0122 0
M  V30 21 C -1.8458 -1.9524 -1.7382 0
M  V30 22 C -1.7662 0.4157 -2.2273 0
M  V30 23 C -2.6675 -2.3888 -2.9344 0
M  V30 24 C -4.0636 -2.4867 -2.8447 0
M  V30 25 C -2.0414 -2.729 -4.1431 0
M  V30 26 C -4.8162 -2.907 -3.9433 0
M  V30 27 C -2.795 -3.1484 -5.2403 0
M  V30 28 C -4.1822 -3.2371 -5.1399 0
M  V30 29 H 1.0036 3.0669 -0.2032 0
M  V30 30 H 3.969 -0.4071 -0.8878 0
M  V30 31 H 1.6685 -0.0436 -2.084 0
M  V30 32 H 0.7852 1.3322 -1.4827 0
M  V30 33 H -1.6713 2.3297 3.8998 0
M  V30 34 H 0.4048 -0.4028 3.3501 0
M  V30 35 H -0.329 0.5994 4.5869 0
M  V30 36 H -0.9429 4.4856 0.2721 0
M  V30 37 H 4.2904 0.2912 5.1425 0
M  V30 38 H 1.8403 2.0268 4.6391 0
M  V30 39 H 1.8773 0.3966 5.3223 0
M  V30 40 H 5.943 -0.6549 1.3053 0
M  V30 41 H 0.4177 -1.5882 -0.6294 0
M  V30 42 H -0.5722 -0.2883 0.0127 0
M  V30 43 H -2.2952 4.1048 2.3159 0
M  V30 44 H 6.1834 -0.4434 3.7641 0
M  V30 45 H -1.2406 -2.8248 -1.4563 0
M  V30 46 H -2.499 -1.7411 -0.8806 0
M  V30 47 H -2.4571 0.2943 -3.0684 0
M  V30 48 H -2.3511 0.6864 -1.3404 0
M  V30 49 H -1.1331 1.2673 -2.4941 0
M  V30 50 H -4.5744 -2.2342 -1.9185 0
M  V30 51 H -0.959 -2.6572 -4.2301 0
M  V30 52 H -5.898 -2.9772 -3.8652 0
M  V30 53 H -2.2984 -3.4037 -6.1724 0
M  V30 54 H -4.7688 -3.5633 -5.9944 0
M  V30 END ATOM
M  V30 BEGIN BOND
M  V30 1 1 1 2
M  V30 2 1 1 3
M  V30 3 1 1 4
M  V30 4 2 2 5
M  V30 5 1 2 6
M  V30 6 2 3 7
M  V30 7 1 3 8
M  V30 8 2 4 9
M  V30 9 1 4 10
M  V30 10 1 5 11
M  V30 11 1 5 12
M  V30 12 2 6 13
M  V30 13 1 7 14
M  V30 14 1 7 15
M  V30 15 2 8 16
M  V30 16 1 10 17
M  V30 17 2 11 18
M  V30 18 2 14 19
M  V30 19 1 17 20
M  V30 20 1 20 21
M  V30 21 1 20 22
M  V30 22 1 21 23
M  V30 23 2 23 24
M  V30 24 1 23 25
M  V30 25 1 24 26
M  V30 26 2 25 27
M  V30 27 2 26 28
M  V30 28 1 8 9
M  V30 29 1 12 15
M  V30 30 1 13 18
M  V30 31 1 16 19
M  V30 32 1 27 28
M  V30 33 1 6 29
M  V30 34 1 9 30
M  V30 35 1 10 31
M  V30 36 1 10 32
M  V30 37 1 11 33
M  V30 38 1 12 34
M  V30 39 1 12 35
M  V30 40 1 13 36
M  V30 41 1 14 37
M  V30 42 1 15 38
M  V30 43 1 15 39
M  V30 44 1 16 40
M  V30 45 1 17 41
M  V30 46 1 17 42
M  V30 47 1 18 43
M  V30 48 1 19 44
M  V30 49 1 21 45
M  V30 50 1 21 46
M  V30 51 1 22 47
M  V30 52 1 22 48
M  V30 53 1 22 49
M  V30 54 1 24 50
M  V30 55 1 25 51
M  V30 56 1 26 52
M  V30 57 1 27 53
M  V30 58 1 28 54
M  V30 END BOND
M  V30 END CTAB
M  END
>  <level_0>
1794

>  <index>
1794

>  <NO.>
1795

>  <Name>
azipramine

>  <SMILES>
CN(CCc1cc2cccc3c2n1-c1ccccc1CC3)Cc1ccccc1

>  <logBB>


>  <Class>
1

>  <MW>
366.21

>  <nHBAcc>
1

>  <nHBDon>
0

>  <SLogP>
5.4

>  <TopoPSA>
8.17

>  <MMFF94 Energy>
108.29

$$$$
CN(N=O)C(=O)N[C@H]1[C@@H](O)O[C@H](CO)[C@@H](O)[C@@H]1O
Actelion Java MolfileCreator 2.0

  0  0  0  0  0  0              0 V3000
M  V30 BEGIN CTAB
M  V30 COUNTS 33 33 0 0 0
M  V30 BEGIN ATOM
M  V30 1 O -1.9011 2.6941 -2.2975 0
M  V30 2 N -2.2499 2.1247 -3.3336 0
M  V30 3 N -1.9862 0.6473 -3.3818 0
M  V30 4 C -1.3969 -0.1173 -2.3805 0
M  V30 5 C -2.3935 0.0161 -4.6231 0
M  V30 6 O -1.1823 -1.325 -2.5103 0
M  V30 7 N -1.0472 0.5204 -1.2265 0
M  V30 8 C -0.4764 -0.1592 -0.0592 0 CFG=1
M  V30 9 C 0.8877 -0.8445 -0.3292 0 CFG=2
M  V30 10 C -0.3116 0.8284 1.1045 0 CFG=1
M  V30 11 O 1.3974 -1.4835 0.8426 0
M  V30 12 O 1.8505 0.0915 -0.8008 0
M  V30 13 O -1.5865 1.3881 1.4674 0
M  V30 14 C 0.2906 0.1274 2.3259 0 CFG=1
M  V30 15 C 1.5983 -0.5815 1.9361 0 CFG=1
M  V30 16 O 0.4821 1.1129 3.3505 0
M  V30 17 C 2.1604 -1.3857 3.116 0
M  V30 18 O 2.4485 -0.5396 4.2276 0
M  V30 19 H -2.2346 -1.065 -4.6086 0
M  V30 20 H -1.8115 0.445 -5.4449 0
M  V30 21 H -3.4578 0.2103 -4.7896 0
M  V30 22 H -1.37 1.4728 -1.0939 0
M  V30 23 H -1.2051 -0.9265 0.2349 0
M  V30 24 H 0.7752 -1.623 -1.0892 0
M  V30 25 H 0.315 1.6789 0.8074 0
M  V30 26 H 2.4031 -0.4027 -1.4293 0
M  V30 27 H -1.4205 1.8589 2.3095 0
M  V30 28 H -0.4367 -0.5974 2.713 0
M  V30 29 H 2.3517 0.1708 1.6674 0
M  V30 30 H 1.0037 0.6766 4.0595 0
M  V30 31 H 1.4391 -2.1438 3.4406 0
M  V30 32 H 3.0712 -1.9221 2.8273 0
M  V30 33 H 3.3311 -0.1551 4.0686 0
M  V30 END ATOM
M  V30 BEGIN BOND
M  V30 1 2 1 2
M  V30 2 1 2 3
M  V30 3 1 3 4
M  V30 4 1 3 5
M  V30 5 2 4 6
M  V30 6 1 4 7
M  V30 7 1 7 8
M  V30 8 1 8 9
M  V30 9 1 8 10
M  V30 10 1 9 11
M  V30 11 1 9 12
M  V30 12 1 10 13
M  V30 13 1 10 14
M  V30 14 1 11 15
M  V30 15 1 14 16
M  V30 16 1 15 17
M  V30 17 1 17 18
M  V30 18 1 14 15
M  V30 19 1 5 19
M  V30 20 1 5 20
M  V30 21 1 5 21
M  V30 22 1 7 22
M  V30 23 1 8 23
M  V30 24 1 9 24
M  V30 25 1 10 25
M  V30 26 1 12 26
M  V30 27 1 13 27
M  V30 28 1 14 28
M  V30 29 1 15 29
M  V30 30 1 16 30
M  V30 31 1 17 31
M  V30 32 1 17 32
M  V30 33 1 18 33
M  V30 END BOND
M  V30 BEGIN COLLECTION
M  V30 MDLV30/STEABS ATOMS=(5 8 9 10 14 15)
M  V30 END COLLECTION
M  V30 END CTAB
M  END
>  <level_0>
1795

>  <index>
1795

>  <NO.>
1796

>  <Name>
streptozocin

>  <SMILES>
CN(N=O)C(=O)N[C@H]1[C@@H](O)O[C@H](CO)[C@@H](O)[C@@H]1O

>  <logBB>


>  <Class>
-1

>  <MW>
265.09

>  <nHBAcc>
8

>  <nHBDon>
5

>  <SLogP>
-2.89

>  <TopoPSA>
151.92

>  <MMFF94 Energy>
28.928

$$$$
CNC(=O)C[C@@H](N)C(=O)N[C@@H](C(=O)N[C@@H]1C(=O)N2[C@@H](C(=O)O)C(C)(C)S[C@H]12)c1ccc(O)cc1
Actelion Java MolfileCreator 2.0

  0  0  0  0  0  0              0 V3000
M  V30 BEGIN CTAB
M  V30 COUNTS 61 63 0 0 0
M  V30 BEGIN ATOM
M  V30 1 S 0.0 2.0114 -2.0919 0
M  V30 2 C -0.1622 0.6956 -3.4068 0
M  V30 3 C -1.805 2.3951 -2.0511 0 CFG=1
M  V30 4 C -1.5993 0.7964 -3.9681 0 CFG=1
M  V30 5 C 0.9478 0.9079 -4.4419 0
M  V30 6 C 0.058 -0.6623 -2.7186 0
M  V30 7 N -2.401 1.3847 -2.9148 0
M  V30 8 C -2.6281 1.7964 -0.8751 0 CFG=1
M  V30 9 C -1.7233 1.6817 -5.2037 0
M  V30 10 C -3.02 0.6999 -1.9182 0
M  V30 11 N -1.8545 1.3242 0.2982 0
M  V30 12 O -1.8427 2.8966 -5.2367 0
M  V30 13 O -1.6454 0.9796 -6.3544 0
M  V30 14 O -3.5163 -0.4014 -1.9295 0
M  V30 15 C -2.4529 0.6731 1.3574 0
M  V30 16 O -3.678 0.6629 1.4748 0
M  V30 17 C -1.4737 0.1221 2.4397 0 CFG=2
M  V30 18 N -0.2139 -0.3703 1.8877 0
M  V30 19 C -2.081 -0.9744 3.3013 0
M  V30 20 C 0.8541 0.4262 1.5657 0
M  V30 21 C -2.7578 -2.0664 2.7297 0
M  V30 22 C -1.9101 -0.9432 4.6955 0
M  V30 23 O 0.7804 1.6512 1.5824 0
M  V30 24 C 2.0842 -0.3615 1.072 0 CFG=2
M  V30 25 C -3.2732 -3.0866 3.5329 0
M  V30 26 C -2.4221 -1.9652 5.4969 0
M  V30 27 N 2.1239 -1.6834 1.7489 0
M  V30 28 C 3.3613 0.4585 1.2618 0
M  V30 29 C -3.101 -3.0256 4.9111 0
M  V30 30 C 4.5025 -0.0597 0.4154 0
M  V30 31 O -3.5876 -4.0 5.7314 0
M  V30 32 O 4.5091 -1.1742 -0.0964 0
M  V30 33 N 5.5529 0.8252 0.3144 0
M  V30 34 C 6.7349 0.495 -0.4395 0
M  V30 35 H -2.0652 3.4188 -2.3344 0
M  V30 36 H -2.0128 -0.1905 -4.2082 0
M  V30 37 H 1.9424 0.7925 -3.9943 0
M  V30 38 H 0.8709 0.1698 -5.2483 0
M  V30 39 H 0.9109 1.9043 -4.8961 0
M  V30 40 H -0.0568 -1.4798 -3.4399 0
M  V30 41 H 1.0675 -0.7434 -2.2994 0
M  V30 42 H -0.6536 -0.8436 -1.9064 0
M  V30 43 H -3.4765 2.4229 -0.5754 0
M  V30 44 H -0.8513 1.4892 0.3479 0
M  V30 45 H -1.7516 1.6564 -7.0572 0
M  V30 46 H -1.239 0.9896 3.0716 0
M  V30 47 H -0.032 -1.3727 1.8716 0
M  V30 48 H -2.9021 -2.1232 1.6517 0
M  V30 49 H -1.3763 -0.1219 5.1687 0
M  V30 50 H 1.9096 -0.5442 0.005 0
M  V30 51 H -3.8026 -3.9108 3.0657 0
M  V30 52 H -2.2931 -1.9331 6.5749 0
M  V30 53 H 2.4168 -1.5577 2.719 0
M  V30 54 H 2.8819 -2.2201 1.3097 0
M  V30 55 H 3.6767 0.4605 2.3123 0
M  V30 56 H 3.1889 1.5044 0.9788 0
M  V30 57 H -4.0786 -4.6389 5.1891 0
M  V30 58 H 5.4924 1.734 0.7568 0
M  V30 59 H 6.4622 0.3473 -1.4879 0
M  V30 60 H 7.1725 -0.4255 -0.0442 0
M  V30 61 H 7.4492 1.3166 -0.3511 0
M  V30 END ATOM
M  V30 BEGIN BOND
M  V30 1 1 1 2
M  V30 2 1 1 3
M  V30 3 1 2 4
M  V30 4 1 2 5
M  V30 5 1 2 6
M  V30 6 1 3 7
M  V30 7 1 3 8
M  V30 8 1 4 9
M  V30 9 1 7 10
M  V30 10 1 8 11
M  V30 11 2 9 12
M  V30 12 1 9 13
M  V30 13 2 10 14
M  V30 14 1 11 15
M  V30 15 2 15 16
M  V30 16 1 15 17
M  V30 17 1 17 18
M  V30 18 1 17 19
M  V30 19 1 18 20
M  V30 20 2 19 21
M  V30 21 1 19 22
M  V30 22 2 20 23
M  V30 23 1 20 24
M  V30 24 1 21 25
M  V30 25 2 22 26
M  V30 26 1 24 27
M  V30 27 1 24 28
M  V30 28 2 25 29
M  V30 29 1 28 30
M  V30 30 1 29 31
M  V30 31 2 30 32
M  V30 32 1 30 33
M  V30 33 1 33 34
M  V30 34 1 4 7
M  V30 35 1 8 10
M  V30 36 1 26 29
M  V30 37 1 3 35
M  V30 38 1 4 36
M  V30 39 1 5 37
M  V30 40 1 5 38
M  V30 41 1 5 39
M  V30 42 1 6 40
M  V30 43 1 6 41
M  V30 44 1 6 42
M  V30 45 1 8 43
M  V30 46 1 11 44
M  V30 47 1 13 45
M  V30 48 1 17 46
M  V30 49 1 18 47
M  V30 50 1 21 48
M  V30 51 1 22 49
M  V30 52 1 24 50
M  V30 53 1 25 51
M  V30 54 1 26 52
M  V30 55 1 27 53
M  V30 56 1 27 54
M  V30 57 1 28 55
M  V30 58 1 28 56
M  V30 59 1 31 57
M  V30 60 1 33 58
M  V30 61 1 34 59
M  V30 62 1 34 60
M  V30 63 1 34 61
M  V30 END BOND
M  V30 BEGIN COLLECTION
M  V30 MDLV30/STEABS ATOMS=(5 3 4 8 17 24)
M  V30 END COLLECTION
M  V30 END CTAB
M  END
>  <level_0>
1896

>  <index>
1896

>  <NO.>
1897

>  <Name>
aspoxicillin

>  <SMILES>
CNC(=O)C[C@@H](N)C(=O)N[C@@H](C(=O)N[C@@H]1C(=O)N2[C@@H](C(=O)O)C(C)(C)S[C@H]12)c1ccc(O)cc1

>  <logBB>


>  <Class>
-1

>  <MW>
493.16

>  <nHBAcc>
8

>  <nHBDon>
6

>  <SLogP>
-1.36

>  <TopoPSA>
191.16

>  <MMFF94 Energy>
54.217

$$$$
CNC(C)C1CCC(N)C(OC2C(N)CC(N)C(OC3OCC(C)(O)C(NC)C3O)C2O)O1
Actelion Java MolfileCreator 2.0

  0  0  0  0  0  0              0 V3000
M  V30 BEGIN CTAB
M  V30 COUNTS 76 78 0 0 0
M  V30 BEGIN ATOM
M  V30 1 O 1.1054 1.5795 0.9474 0
M  V30 2 C 1.2355 0.7023 2.0693 0
M  V30 3 C 0.7885 2.9352 1.3085 0
M  V30 4 O -0.0097 0.4722 2.7329 0
M  V30 5 C 2.2884 1.1999 3.1078 0
M  V30 6 C 0.5628 3.7472 -0.0021 0
M  V30 7 C 1.8665 3.525 2.2236 0
M  V30 8 C -1.0968 0.0764 1.8699 0
M  V30 9 N 3.6772 1.0679 2.6185 0
M  V30 10 C 2.0176 2.6624 3.4732 0
M  V30 11 N 0.1434 5.147 0.207 0
M  V30 12 C 1.8125 3.7566 -0.8958 0
M  V30 13 C -0.7689 -1.0994 0.9299 0
M  V30 14 C -2.3025 -0.2722 2.781 0
M  V30 15 C -1.1929 5.2559 0.7793 0
M  V30 16 O -0.2887 -2.2317 1.6718 0
M  V30 17 C -2.0022 -1.5009 0.103 0
M  V30 18 N -2.6853 0.9006 3.5901 0
M  V30 19 C -3.522 -0.741 1.9757 0
M  V30 20 O -1.6263 -2.6373 -0.7006 0
M  V30 21 C -3.1707 -1.8991 1.0348 0
M  V30 22 C -1.7451 -2.4009 -2.1065 0
M  V30 23 N -4.3625 -2.3007 0.2717 0
M  V30 24 O -1.7963 -3.6472 -2.802 0
M  V30 25 C -0.6017 -1.5239 -2.6636 0
M  V30 26 C -0.5987 -4.4155 -2.6835 0
M  V30 27 O -0.8816 -1.181 -4.0298 0
M  V30 28 C 0.7612 -2.2639 -2.522 0
M  V30 29 C 0.6541 -3.6708 -3.1849 0
M  V30 30 N 1.9074 -1.5248 -3.1288 0
M  V30 31 O 0.5452 -3.4738 -4.6092 0
M  V30 32 C 1.8884 -4.5471 -2.9413 0
M  V30 33 C 2.0677 -0.1785 -2.584 0
M  V30 34 H 1.5956 -0.2598 1.6897 0
M  V30 35 H -0.1613 2.9122 1.8558 0
M  V30 36 H 2.201 0.5955 4.019 0
M  V30 37 H -0.2118 3.2277 -0.5835 0
M  V30 38 H 2.8315 3.5643 1.7068 0
M  V30 39 H 1.609 4.5481 2.5183 0
M  V30 40 H -1.3725 0.9437 1.2554 0
M  V30 41 H 4.3203 1.3869 3.3423 0
M  V30 42 H 3.8866 0.083 2.4624 0
M  V30 43 H 1.094 2.7211 4.0638 0
M  V30 44 H 2.8152 3.0628 4.1109 0
M  V30 45 H 0.151 5.6329 -0.6904 0
M  V30 46 H 1.5886 4.209 -1.8689 0
M  V30 47 H 2.172 2.7407 -1.0879 0
M  V30 48 H 2.6319 4.3287 -0.4483 0
M  V30 49 H 0.0405 -0.8322 0.245 0
M  V30 50 H -1.9991 -1.0615 3.4807 0
M  V30 51 H -1.9371 4.7325 0.1708 0
M  V30 52 H -1.4802 6.3114 0.8223 0
M  V30 53 H -1.2287 4.875 1.8037 0
M  V30 54 H -0.3843 -3.0048 1.0816 0
M  V30 55 H -2.3081 -0.6524 -0.5243 0
M  V30 56 H -3.315 0.6022 4.3346 0
M  V30 57 H -1.8372 1.236 4.055 0
M  V30 58 H -3.9216 0.0993 1.3904 0
M  V30 59 H -4.32 -1.0517 2.6632 0
M  V30 60 H -2.8796 -2.7727 1.6311 0
M  V30 61 H -2.7092 -1.9219 -2.315 0
M  V30 62 H -4.1036 -3.0603 -0.3625 0
M  V30 63 H -4.6885 -1.5375 -0.3193 0
M  V30 64 H -0.5676 -0.5839 -2.1052 0
M  V30 65 H -0.481 -4.7302 -1.6397 0
M  V30 66 H -0.7575 -5.3195 -3.282 0
M  V30 67 H -0.8174 -2.0176 -4.5384 0
M  V30 68 H 0.9727 -2.4045 -1.4536 0
M  V30 69 H 2.7719 -2.0342 -2.9412 0
M  V30 70 H 1.1957 -2.7662 -4.8135 0
M  V30 71 H 2.0896 -4.6676 -1.872 0
M  V30 72 H 1.7448 -5.5425 -3.378 0
M  V30 73 H 2.7819 -4.1389 -3.4247 0
M  V30 74 H 2.128 -0.1905 -1.491 0
M  V30 75 H 1.2589 0.4867 -2.8989 0
M  V30 76 H 2.9986 0.2536 -2.9648 0
M  V30 END ATOM
M  V30 BEGIN BOND
M  V30 1 1 1 2
M  V30 2 1 1 3
M  V30 3 1 2 4
M  V30 4 1 2 5
M  V30 5 1 3 6
M  V30 6 1 3 7
M  V30 7 1 4 8
M  V30 8 1 5 9
M  V30 9 1 5 10
M  V30 10 1 6 11
M  V30 11 1 6 12
M  V30 12 1 8 13
M  V30 13 1 8 14
M  V30 14 1 11 15
M  V30 15 1 13 16
M  V30 16 1 13 17
M  V30 17 1 14 18
M  V30 18 1 14 19
M  V30 19 1 17 20
M  V30 20 1 17 21
M  V30 21 1 20 22
M  V30 22 1 21 23
M  V30 23 1 22 24
M  V30 24 1 22 25
M  V30 25 1 24 26
M  V30 26 1 25 27
M  V30 27 1 25 28
M  V30 28 1 26 29
M  V30 29 1 28 30
M  V30 30 1 29 31
M  V30 31 1 29 32
M  V30 32 1 30 33
M  V30 33 1 7 10
M  V30 34 1 19 21
M  V30 35 1 28 29
M  V30 36 1 2 34
M  V30 37 1 3 35
M  V30 38 1 5 36
M  V30 39 1 6 37
M  V30 40 1 7 38
M  V30 41 1 7 39
M  V30 42 1 8 40
M  V30 43 1 9 41
M  V30 44 1 9 42
M  V30 45 1 10 43
M  V30 46 1 10 44
M  V30 47 1 11 45
M  V30 48 1 12 46
M  V30 49 1 12 47
M  V30 50 1 12 48
M  V30 51 1 13 49
M  V30 52 1 14 50
M  V30 53 1 15 51
M  V30 54 1 15 52
M  V30 55 1 15 53
M  V30 56 1 16 54
M  V30 57 1 17 55
M  V30 58 1 18 56
M  V30 59 1 18 57
M  V30 60 1 19 58
M  V30 61 1 19 59
M  V30 62 1 21 60
M  V30 63 1 22 61
M  V30 64 1 23 62
M  V30 65 1 23 63
M  V30 66 1 25 64
M  V30 67 1 26 65
M  V30 68 1 26 66
M  V30 69 1 27 67
M  V30 70 1 28 68
M  V30 71 1 30 69
M  V30 72 1 31 70
M  V30 73 1 32 71
M  V30 74 1 32 72
M  V30 75 1 32 73
M  V30 76 1 33 74
M  V30 77 1 33 75
M  V30 78 1 33 76
M  V30 END BOND
M  V30 END CTAB
M  END
>  <level_0>
1902

>  <index>
1902

>  <NO.>
1903

>  <Name>
gentamicin

>  <SMILES>
CNC(C)C1CCC(N)C(OC2C(N)CC(N)C(OC3OCC(C)(O)C(NC)C3O)C2O)O1

>  <logBB>


>  <Class>
-1

>  <MW>
477.32

>  <nHBAcc>
12

>  <nHBDon>
8

>  <SLogP>
-3.33

>  <TopoPSA>
199.73

>  <MMFF94 Energy>
226.59

$$$$
CNC1C(O)C(OC2C(NC(=O)C(O)CN)CC(N)C(OC3OC(CN)C(O)C(O)C3O)C2O)OCC1(C)O
Actelion Java MolfileCreator 2.0

  0  0  0  0  0  0              0 V3000
M  V30 BEGIN CTAB
M  V30 COUNTS 82 84 0 0 0
M  V30 BEGIN ATOM
M  V30 1 O -1.6643 2.5369 -4.2045 0
M  V30 2 C -0.5966 1.9902 -3.9585 0
M  V30 3 N -0.3714 1.2115 -2.8514 0
M  V30 4 C 0.6411 2.0572 -4.8783 0
M  V30 5 C -1.3302 0.9376 -1.7823 0
M  V30 6 O 1.8706 2.0282 -4.1246 0
M  V30 7 C 0.6011 3.3154 -5.762 0
M  V30 8 C -0.8575 -0.3034 -0.9713 0
M  V30 9 C -1.5026 2.1789 -0.8868 0
M  V30 10 N 1.7978 3.4347 -6.6112 0
M  V30 11 O 0.4592 -0.0586 -0.4476 0
M  V30 12 C -1.7797 -0.5626 0.2268 0
M  V30 13 C -2.3916 1.8928 0.3322 0
M  V30 14 C 1.49 -0.872 -1.0249 0
M  V30 15 O -3.0859 -0.9268 -0.2311 0
M  V30 16 C -1.833 0.6897 1.1297 0
M  V30 17 N -2.486 3.1055 1.1683 0
M  V30 18 O 1.5596 -0.6235 -2.4246 0
M  V30 19 C 2.7869 -0.4678 -0.2895 0
M  V30 20 O -2.6643 0.4241 2.2719 0
M  V30 21 C 2.6504 -1.3095 -3.0447 0
M  V30 22 O 2.712 -0.8733 1.0968 0
M  V30 23 C 4.0507 -1.0778 -0.9533 0
M  V30 24 C -1.9902 0.5707 3.5224 0
M  V30 25 C 3.9835 -0.7875 -2.4829 0
M  V30 26 N 4.1268 -2.5217 -0.5883 0
M  V30 27 O -2.9649 0.7504 4.5612 0
M  V30 28 C -1.086 -0.6267 3.886 0
M  V30 29 O 4.0464 0.6454 -2.6611 0
M  V30 30 C 5.1522 -1.367 -3.2756 0
M  V30 31 C 5.5047 -2.949 -0.3463 0
M  V30 32 C -3.8568 -0.3779 4.6988 0
M  V30 33 O -0.0219 -0.8663 2.9504 0
M  V30 34 C -1.9505 -1.8781 4.015 0
M  V30 35 C -3.0674 -1.6576 5.0426 0
M  V30 36 C -4.8608 -0.0251 5.818 0
M  V30 37 O -1.1158 -2.9777 4.4236 0
M  V30 38 O -3.8737 -2.8421 5.0489 0
M  V30 39 N -5.6631 1.1503 5.4697 0
M  V30 40 H 0.5533 0.7857 -2.7681 0
M  V30 41 H 0.6299 1.1568 -5.5035 0
M  V30 42 H -2.2934 0.7149 -2.2585 0
M  V30 43 H 1.8814 2.8618 -3.614 0
M  V30 44 H -0.2936 3.3216 -6.3936 0
M  V30 45 H 0.5578 4.2088 -5.128 0
M  V30 46 H -0.8635 -1.1825 -1.6297 0
M  V30 47 H -1.9343 2.9997 -1.4741 0
M  V30 48 H -0.515 2.5306 -0.5563 0
M  V30 49 H 1.7898 2.6872 -7.3052 0
M  V30 50 H 2.6214 3.2481 -6.0344 0
M  V30 51 H -1.4021 -1.4041 0.8175 0
M  V30 52 H -3.4114 1.6692 -0.0041 0
M  V30 53 H 1.243 -1.9243 -0.8345 0
M  V30 54 H -3.0793 -1.8802 -0.4242 0
M  V30 55 H -0.8165 0.9444 1.4562 0
M  V30 56 H -3.0946 2.883 1.9601 0
M  V30 57 H -1.5756 3.3271 1.566 0
M  V30 58 H 2.8802 0.6259 -0.2864 0
M  V30 59 H 2.5781 -1.0897 -4.1158 0
M  V30 60 H 2.5309 -2.3918 -2.9189 0
M  V30 61 H 1.877 -0.4912 1.4402 0
M  V30 62 H 4.9068 -0.5487 -0.5114 0
M  V30 63 H -1.392 1.489 3.5014 0
M  V30 64 H 3.6495 -2.5998 0.3213 0
M  V30 65 H -0.6029 -0.4284 4.8515 0
M  V30 66 H 3.3188 0.9185 -3.2607 0
M  V30 67 H 6.1088 -1.0276 -2.8629 0
M  V30 68 H 5.1259 -1.0155 -4.314 0
M  V30 69 H 5.1387 -2.4609 -3.2927 0
M  V30 70 H 5.5043 -4.0044 -0.0555 0
M  V30 71 H 5.9614 -2.3807 0.4709 0
M  V30 72 H 6.132 -2.8587 -1.2353 0
M  V30 73 H -4.4203 -0.5221 3.7675 0
M  V30 74 H 0.3294 -1.7444 3.2123 0
M  V30 75 H -2.3652 -2.1707 3.0429 0
M  V30 76 H -2.615 -1.572 6.0389 0
M  V30 77 H -5.5398 -0.8591 6.017 0
M  V30 78 H -4.3128 0.1992 6.7406 0
M  V30 79 H -1.7435 -3.7003 4.6313 0
M  V30 80 H -4.55 -2.7536 5.7432 0
M  V30 81 H -5.0329 1.8681 5.1024 0
M  V30 82 H -6.0881 1.5423 6.3082 0
M  V30 END ATOM
M  V30 BEGIN BOND
M  V30 1 2 1 2
M  V30 2 1 2 3
M  V30 3 1 2 4
M  V30 4 1 3 5
M  V30 5 1 4 6
M  V30 6 1 4 7
M  V30 7 1 5 8
M  V30 8 1 5 9
M  V30 9 1 7 10
M  V30 10 1 8 11
M  V30 11 1 8 12
M  V30 12 1 9 13
M  V30 13 1 11 14
M  V30 14 1 12 15
M  V30 15 1 12 16
M  V30 16 1 13 17
M  V30 17 1 14 18
M  V30 18 1 14 19
M  V30 19 1 16 20
M  V30 20 1 18 21
M  V30 21 1 19 22
M  V30 22 1 19 23
M  V30 23 1 20 24
M  V30 24 1 21 25
M  V30 25 1 23 26
M  V30 26 1 24 27
M  V30 27 1 24 28
M  V30 28 1 25 29
M  V30 29 1 25 30
M  V30 30 1 26 31
M  V30 31 1 27 32
M  V30 32 1 28 33
M  V30 33 1 28 34
M  V30 34 1 32 35
M  V30 35 1 32 36
M  V30 36 1 34 37
M  V30 37 1 35 38
M  V30 38 1 36 39
M  V30 39 1 13 16
M  V30 40 1 23 25
M  V30 41 1 34 35
M  V30 42 1 3 40
M  V30 43 1 4 41
M  V30 44 1 5 42
M  V30 45 1 6 43
M  V30 46 1 7 44
M  V30 47 1 7 45
M  V30 48 1 8 46
M  V30 49 1 9 47
M  V30 50 1 9 48
M  V30 51 1 10 49
M  V30 52 1 10 50
M  V30 53 1 12 51
M  V30 54 1 13 52
M  V30 55 1 14 53
M  V30 56 1 15 54
M  V30 57 1 16 55
M  V30 58 1 17 56
M  V30 59 1 17 57
M  V30 60 1 19 58
M  V30 61 1 21 59
M  V30 62 1 21 60
M  V30 63 1 22 61
M  V30 64 1 23 62
M  V30 65 1 24 63
M  V30 66 1 26 64
M  V30 67 1 28 65
M  V30 68 1 29 66
M  V30 69 1 30 67
M  V30 70 1 30 68
M  V30 71 1 30 69
M  V30 72 1 31 70
M  V30 73 1 31 71
M  V30 74 1 31 72
M  V30 75 1 32 73
M  V30 76 1 33 74
M  V30 77 1 34 75
M  V30 78 1 35 76
M  V30 79 1 36 77
M  V30 80 1 36 78
M  V30 81 1 37 79
M  V30 82 1 38 80
M  V30 83 1 39 81
M  V30 84 1 39 82
M  V30 END BOND
M  V30 END CTAB
M  END
>  <level_0>
1905

>  <index>
1905

>  <NO.>
1906

>  <Name>
isepamicin

>  <SMILES>
CNC1C(O)C(OC2C(NC(=O)C(O)CN)CC(N)C(OC3OC(CN)C(O)C(O)C3O)C2O)OCC1(C)O

>  <logBB>


>  <Class>
-1

>  <MW>
569.29

>  <nHBAcc>
16

>  <nHBDon>
12

>  <SLogP>
-7.52

>  <TopoPSA>
297.72

>  <MMFF94 Energy>
297.76

$$$$
CNCC[C@@H](O)[C@@H]1C[C@H](SC2=C(C(=O)O)N3C(=O)[C@H]([C@@H](C)O)[C@H]3[C@H]2C)CN1
Actelion Java MolfileCreator 2.0

  0  0  0  0  0  0              0 V3000
M  V30 BEGIN CTAB
M  V30 COUNTS 56 58 0 0 0
M  V30 BEGIN ATOM
M  V30 1 S -1.2013 0.9609 1.041 0
M  V30 2 C 0.2239 1.9179 1.1624 0
M  V30 3 C -0.5131 -0.5889 0.3847 0 CFG=2
M  V30 4 C 0.7603 2.7241 0.2309 0
M  V30 5 C 1.0358 1.9571 2.4465 0 CFG=1
M  V30 6 C -0.2618 -0.5719 -1.1171 0
M  V30 7 C -1.5005 -1.7375 0.5044 0
M  V30 8 N 1.9063 3.3131 0.6995 0
M  V30 9 C 0.2431 3.0313 -1.1247 0
M  V30 10 C 2.2485 2.8257 2.0478 0 CFG=1
M  V30 11 C 0.2908 2.5385 3.641 0
M  V30 12 N -0.2047 -1.989 -1.5096 0
M  V30 13 C -0.9442 -2.765 -0.4893 0 CFG=2
M  V30 14 C 2.046 4.6377 0.9716 0
M  V30 15 O -0.8753 2.8213 -1.5567 0
M  V30 16 O 1.1982 3.5582 -1.9146 0
M  V30 17 C 2.5224 4.331 2.4029 0 CFG=2
M  V30 18 C -2.0412 -3.7094 -1.0414 0 CFG=2
M  V30 19 O 1.7869 5.6421 0.3513 0
M  V30 20 C 3.942 4.7572 2.7545 0 CFG=2
M  V30 21 O -2.7145 -4.3166 0.0655 0
M  V30 22 C -1.4502 -4.8018 -1.9455 0
M  V30 23 O 3.9426 6.1498 3.0705 0
M  V30 24 C 4.968 4.5014 1.6598 0
M  V30 25 C -2.4768 -5.7691 -2.5462 0
M  V30 26 N -3.3986 -5.0897 -3.4582 0
M  V30 27 C -4.2679 -6.0486 -4.1307 0
M  V30 28 H 0.4069 -0.8435 0.9265 0
M  V30 29 H 1.3843 0.9458 2.6917 0
M  V30 30 H 0.6727 -0.0666 -1.378 0
M  V30 31 H -1.0833 -0.0869 -1.6589 0
M  V30 32 H -2.512 -1.4279 0.2093 0
M  V30 33 H -1.5443 -2.1373 1.5234 0
M  V30 34 H 3.1594 2.2121 2.0208 0
M  V30 35 H -0.5072 1.8654 3.9717 0
M  V30 36 H -0.1687 3.5048 3.4052 0
M  V30 37 H 0.9716 2.6874 4.4861 0
M  V30 38 H -0.622 -2.0986 -2.4341 0
M  V30 39 H -0.2059 -3.3732 0.0508 0
M  V30 40 H 0.7322 3.7633 -2.7504 0
M  V30 41 H 1.8219 4.7247 3.1511 0
M  V30 42 H -2.777 -3.1097 -1.5902 0
M  V30 43 H 4.2559 4.2327 3.6637 0
M  V30 44 H -3.5529 -4.6828 -0.263 0
M  V30 45 H -0.7454 -5.4026 -1.3557 0
M  V30 46 H -0.875 -4.3491 -2.762 0
M  V30 47 H 3.7121 6.6492 2.2639 0
M  V30 48 H 5.0285 3.4427 1.3936 0
M  V30 49 H 4.7413 5.0738 0.7537 0
M  V30 50 H 5.9596 4.8303 1.9899 0
M  V30 51 H -3.0317 -6.278 -1.7496 0
M  V30 52 H -1.9218 -6.5393 -3.0963 0
M  V30 53 H -3.9786 -4.4229 -2.9521 0
M  V30 54 H -4.88 -6.6055 -3.4138 0
M  V30 55 H -3.688 -6.7549 -4.7335 0
M  V30 56 H -4.9426 -5.5154 -4.8077 0
M  V30 END ATOM
M  V30 BEGIN BOND
M  V30 1 1 1 2
M  V30 2 1 1 3
M  V30 3 2 2 4
M  V30 4 1 2 5
M  V30 5 1 3 6
M  V30 6 1 3 7
M  V30 7 1 4 8
M  V30 8 1 4 9
M  V30 9 1 5 10
M  V30 10 1 5 11
M  V30 11 1 6 12
M  V30 12 1 7 13
M  V30 13 1 8 14
M  V30 14 2 9 15
M  V30 15 1 9 16
M  V30 16 1 10 17
M  V30 17 1 13 18
M  V30 18 2 14 19
M  V30 19 1 17 20
M  V30 20 1 18 21
M  V30 21 1 18 22
M  V30 22 1 20 23
M  V30 23 1 20 24
M  V30 24 1 22 25
M  V30 25 1 25 26
M  V30 26 1 26 27
M  V30 27 1 8 10
M  V30 28 1 12 13
M  V30 29 1 14 17
M  V30 30 1 3 28
M  V30 31 1 5 29
M  V30 32 1 6 30
M  V30 33 1 6 31
M  V30 34 1 7 32
M  V30 35 1 7 33
M  V30 36 1 10 34
M  V30 37 1 11 35
M  V30 38 1 11 36
M  V30 39 1 11 37
M  V30 40 1 12 38
M  V30 41 1 13 39
M  V30 42 1 16 40
M  V30 43 1 17 41
M  V30 44 1 18 42
M  V30 45 1 20 43
M  V30 46 1 21 44
M  V30 47 1 22 45
M  V30 48 1 22 46
M  V30 49 1 23 47
M  V30 50 1 24 48
M  V30 51 1 24 49
M  V30 52 1 24 50
M  V30 53 1 25 51
M  V30 54 1 25 52
M  V30 55 1 26 53
M  V30 56 1 27 54
M  V30 57 1 27 55
M  V30 58 1 27 56
M  V30 END BOND
M  V30 BEGIN COLLECTION
M  V30 MDLV30/STEABS ATOMS=(7 3 5 10 13 17 18 20)
M  V30 END COLLECTION
M  V30 END CTAB
M  END
>  <level_0>
1927

>  <index>
1927

>  <NO.>
1928

>  <Name>
lenapenem

>  <SMILES>
CNCC[C@@H](O)[C@@H]1C[C@H](SC2=C(C(=O)O)N3C(=O)[C@H]([C@@H](C)O)[C@H]3[C@H]2C)CN1

>  <logBB>


>  <Class>
-1

>  <MW>
399.18

>  <nHBAcc>
7

>  <nHBDon>
5

>  <SLogP>
-0.43

>  <TopoPSA>
122.13

>  <MMFF94 Energy>
77.142

$$$$
CN[C@@H]1[C@@H](O)[C@@H](O[C@@H]2[C@@H](O)[C@H](O[C@H]3OC(CN)=CC[C@H]3N)[C@@H](N)C[C@H]2N)OC[C@]1(C)O
Actelion Java MolfileCreator 2.0

  0  0  0  0  0  0              0 V3000
M  V30 BEGIN CTAB
M  V30 COUNTS 68 70 0 0 0
M  V30 BEGIN ATOM
M  V30 1 O -3.0069 -3.4823 0.3161 0
M  V30 2 C -3.0495 -4.8186 -0.0359 0
M  V30 3 C -1.8963 -3.0598 1.1196 0 CFG=2
M  V30 4 C -2.2565 -5.7518 0.5159 0
M  V30 5 C -4.0623 -5.1388 -1.1086 0
M  V30 6 O -0.7021 -2.8341 0.3437 0
M  V30 7 C -1.5828 -4.0809 2.2483 0 CFG=1
M  V30 8 C -1.2868 -5.4464 1.6137 0
M  V30 9 N -5.4132 -4.7761 -0.6849 0
M  V30 10 C -0.8208 -1.6996 -0.5429 0 CFG=1
M  V30 11 N -0.4614 -3.6857 3.1281 0
M  V30 12 C 0.0089 -0.5367 0.0332 0 CFG=2
M  V30 13 C -0.2632 -2.1046 -1.9273 0 CFG=1
M  V30 14 O -0.5369 -0.1458 1.3061 0
M  V30 15 C 0.0269 0.6745 -0.9192 0 CFG=1
M  V30 16 N -1.0497 -3.1949 -2.5191 0
M  V30 17 C -0.2463 -0.9144 -2.8899 0
M  V30 18 O 0.9239 1.6547 -0.3656 0
M  V30 19 C 0.5641 0.249 -2.3109 0 CFG=1
M  V30 20 C 0.4422 2.995 -0.5115 0 CFG=1
M  V30 21 N 0.5711 1.3643 -3.2704 0
M  V30 22 O -0.2752 3.4064 0.6583 0
M  V30 23 C 1.6271 3.9464 -0.773 0 CFG=2
M  V30 24 C 0.5316 3.3433 1.8432 0
M  V30 25 O 2.3822 3.5482 -1.9321 0
M  V30 26 C 2.5515 3.9876 0.4658 0 CFG=2
M  V30 27 C 1.7181 4.3263 1.7415 0 CFG=1
M  V30 28 N 3.7847 4.7784 0.1747 0
M  V30 29 O 1.1715 5.6552 1.6517 0
M  V30 30 C 2.5633 4.2631 3.0131 0
M  V30 31 C 3.5821 6.2203 0.08 0
M  V30 32 H -2.1915 -2.1166 1.5941 0
M  V30 33 H -2.3133 -6.785 0.1837 0
M  V30 34 H -3.8129 -4.5886 -2.0222 0
M  V30 35 H -4.0478 -6.2042 -1.3628 0
M  V30 36 H -2.4804 -4.1861 2.8723 0
M  V30 37 H -1.3482 -6.227 2.3816 0
M  V30 38 H -0.2721 -5.4825 1.1979 0
M  V30 39 H -5.6094 -5.2382 0.2008 0
M  V30 40 H -5.4068 -3.7767 -0.4772 0
M  V30 41 H -1.8722 -1.3942 -0.6357 0
M  V30 42 H -0.6856 -2.8026 3.5833 0
M  V30 43 H 0.3508 -3.5064 2.5341 0
M  V30 44 H 1.0375 -0.862 0.2375 0
M  V30 45 H 0.7583 -2.4843 -1.7946 0
M  V30 46 H -0.2272 -0.8105 1.9438 0
M  V30 47 H -0.992 1.0804 -0.9858 0
M  V30 48 H -0.552 -3.5917 -3.3142 0
M  V30 49 H -1.131 -3.9403 -1.824 0
M  V30 50 H -1.2744 -0.5853 -3.0964 0
M  V30 51 H 0.1856 -1.2245 -3.8508 0
M  V30 52 H 1.609 -0.069 -2.1958 0
M  V30 53 H -0.2433 3.0733 -1.3625 0
M  V30 54 H 0.9636 1.0535 -4.1587 0
M  V30 55 H 1.2315 2.0791 -2.9311 0
M  V30 56 H 1.2263 4.9463 -0.9752 0
M  V30 57 H 0.8617 2.3144 2.025 0
M  V30 58 H -0.1237 3.6311 2.673 0
M  V30 59 H 3.263 3.9541 -1.783 0
M  V30 60 H 2.9419 2.9684 0.6 0
M  V30 61 H 4.4575 4.611 0.925 0
M  V30 62 H 0.3092 5.584 1.1983 0
M  V30 63 H 3.0263 3.2794 3.1404 0
M  V30 64 H 1.949 4.4718 3.8967 0
M  V30 65 H 3.3521 5.0227 3.007 0
M  V30 66 H 4.5146 6.6817 -0.2616 0
M  V30 67 H 2.8118 6.4882 -0.6475 0
M  V30 68 H 3.3453 6.667 1.0491 0
M  V30 END ATOM
M  V30 BEGIN BOND
M  V30 1 1 1 2
M  V30 2 1 1 3
M  V30 3 2 2 4
M  V30 4 1 2 5
M  V30 5 1 3 6
M  V30 6 1 3 7
M  V30 7 1 4 8
M  V30 8 1 5 9
M  V30 9 1 6 10
M  V30 10 1 7 11
M  V30 11 1 10 12
M  V30 12 1 10 13
M  V30 13 1 12 14
M  V30 14 1 12 15
M  V30 15 1 13 16
M  V30 16 1 13 17
M  V30 17 1 15 18
M  V30 18 1 15 19
M  V30 19 1 18 20
M  V30 20 1 19 21
M  V30 21 1 20 22
M  V30 22 1 20 23
M  V30 23 1 22 24
M  V30 24 1 23 25
M  V30 25 1 23 26
M  V30 26 1 24 27
M  V30 27 1 26 28
M  V30 28 1 27 29
M  V30 29 1 27 30
M  V30 30 1 28 31
M  V30 31 1 7 8
M  V30 32 1 17 19
M  V30 33 1 26 27
M  V30 34 1 3 32
M  V30 35 1 4 33
M  V30 36 1 5 34
M  V30 37 1 5 35
M  V30 38 1 7 36
M  V30 39 1 8 37
M  V30 40 1 8 38
M  V30 41 1 9 39
M  V30 42 1 9 40
M  V30 43 1 10 41
M  V30 44 1 11 42
M  V30 45 1 11 43
M  V30 46 1 12 44
M  V30 47 1 13 45
M  V30 48 1 14 46
M  V30 49 1 15 47
M  V30 50 1 16 48
M  V30 51 1 16 49
M  V30 52 1 17 50
M  V30 53 1 17 51
M  V30 54 1 19 52
M  V30 55 1 20 53
M  V30 56 1 21 54
M  V30 57 1 21 55
M  V30 58 1 23 56
M  V30 59 1 24 57
M  V30 60 1 24 58
M  V30 61 1 25 59
M  V30 62 1 26 60
M  V30 63 1 28 61
M  V30 64 1 29 62
M  V30 65 1 30 63
M  V30 66 1 30 64
M  V30 67 1 30 65
M  V30 68 1 31 66
M  V30 69 1 31 67
M  V30 70 1 31 68
M  V30 END BOND
M  V30 BEGIN COLLECTION
M  V30 MDLV30/STEABS ATOMS=(11 3 7 10 12 13 15 19 20 23 26 27)
M  V30 END COLLECTION
M  V30 END CTAB
M  END
>  <level_0>
1935

>  <index>
1935

>  <NO.>
1936

>  <Name>
sisomicin

>  <SMILES>
CN[C@@H]1[C@@H](O)[C@@H](O[C@@H]2[C@@H](O)[C@H](O[C@H]3OC(CN)=CC[C@H]3N)[C@@H](N)C[C@H]2N)OC[C@]1(C)O

>  <logBB>


>  <Class>
-1

>  <MW>
447.27

>  <nHBAcc>
12

>  <nHBDon>
8

>  <SLogP>
-3.85

>  <TopoPSA>
213.72

>  <MMFF94 Energy>
212.03

$$$$
CN[C@@H]1[C@@H](O[C@H]2O[C@H](CO)[C@@H](N)[C@H](O)[C@H]2O)O[C@H]2C[C@@H](N)[C@H](O[C@@H]3[C@@H](N)C[C@@H](N)[C@H](O)[C@H]3O)O[C@@H]2[C@@H]1O
Actelion Java MolfileCreator 2.0

  0  0  0  0  0  0              0 V3000
M  V30 BEGIN CTAB
M  V30 COUNTS 78 81 0 0 0
M  V30 BEGIN ATOM
M  V30 1 O 1.7511 -0.2386 0.159 0
M  V30 2 C 2.082 0.0249 -1.2094 0 CFG=1
M  V30 3 C 0.3307 -0.3346 0.3395 0 CFG=2
M  V30 4 O 3.5019 0.1233 -1.3444 0
M  V30 5 C 1.5895 -1.141 -2.1202 0 CFG=2
M  V30 6 C 0.0062 -0.5186 1.8297 0 CFG=2
M  V30 7 C -0.2495 -1.5062 -0.4567 0 CFG=2
M  V30 8 C 4.0738 1.2771 -0.6953 0 CFG=1
M  V30 9 N 1.9053 -0.9538 -3.545 0
M  V30 10 C 0.0835 -1.3437 -1.9393 0
M  V30 11 O 0.7082 -1.658 2.3533 0
M  V30 12 C -1.5205 -0.7028 2.0396 0 CFG=2
M  V30 13 O -1.6636 -1.5355 -0.2935 0
M  V30 14 C 4.8575 0.8077 0.5453 0 CFG=2
M  V30 15 C 5.0225 1.9694 -1.7048 0 CFG=1
M  V30 16 N -1.8572 -1.0264 3.4462 0
M  V30 17 C -2.0463 -1.817 1.0633 0 CFG=2
M  V30 18 O 3.9662 0.2896 1.5506 0
M  V30 19 C 5.6445 1.958 1.1835 0 CFG=1
M  V30 20 N 4.285 2.4716 -2.8754 0
M  V30 21 C 5.8024 3.1192 -1.0554 0
M  V30 22 C -1.678 0.0946 4.3552 0
M  V30 23 O -3.4514 -2.0884 1.0923 0
M  V30 24 O 6.4062 1.4554 2.2905 0
M  V30 25 C 6.5866 2.6245 0.1638 0 CFG=1
M  V30 26 C -4.3237 -0.9666 1.1699 0 CFG=1
M  V30 27 N 7.3314 3.7349 0.7781 0
M  V30 28 O -4.1936 -0.0972 0.0365 0
M  V30 29 C -5.7917 -1.428 1.3046 0 CFG=2
M  V30 30 C -4.5608 -0.7256 -1.2142 0 CFG=1
M  V30 31 O -6.0068 -2.2806 2.4352 0
M  V30 32 C -6.2248 -2.1427 0.0262 0 CFG=2
M  V30 33 C -6.0209 -1.2212 -1.1913 0 CFG=2
M  V30 34 C -4.315 0.3322 -2.2986 0
M  V30 35 O -7.6147 -2.4995 0.1335 0
M  V30 36 N -6.4718 -1.9382 -2.4018 0
M  V30 37 O -2.9611 0.7904 -2.2263 0
M  V30 38 H 1.6238 0.9707 -1.53 0
M  V30 39 H -0.1328 0.6078 0.0153 0
M  V30 40 H 2.0999 -2.0584 -1.7991 0
M  V30 41 H 0.3716 0.3523 2.3856 0
M  V30 42 H 0.1818 -2.4597 -0.1234 0
M  V30 43 H 3.2808 1.9732 -0.3881 0
M  V30 44 H 1.4475 -0.1193 -3.9089 0
M  V30 45 H 2.9114 -0.7938 -3.6319 0
M  V30 46 H -0.2646 -2.2247 -2.4931 0
M  V30 47 H -0.4735 -0.4924 -2.3521 0
M  V30 48 H 1.66 -1.4627 2.2611 0
M  V30 49 H -2.0028 0.2422 1.7593 0
M  V30 50 H 5.5267 -0.0218 0.2871 0
M  V30 51 H 5.7352 1.2254 -2.0836 0
M  V30 52 H -1.2507 -1.7981 3.7416 0
M  V30 53 H -1.5798 -2.7725 1.3357 0
M  V30 54 H 3.2902 -0.221 1.0575 0
M  V30 55 H 4.9464 2.6958 1.6005 0
M  V30 56 H 3.605 3.1774 -2.5986 0
M  V30 57 H 3.7609 1.7003 -3.2877 0
M  V30 58 H 6.4945 3.5568 -1.787 0
M  V30 59 H 5.1102 3.9186 -0.756 0
M  V30 60 H -2.0156 -0.1949 5.3552 0
M  V30 61 H -2.2776 0.9563 4.0451 0
M  V30 62 H -0.6302 0.397 4.437 0
M  V30 63 H 5.7896 0.8752 2.7809 0
M  V30 64 H 7.3343 1.8901 -0.1616 0
M  V30 65 H -4.0974 -0.3897 2.0708 0
M  V30 66 H 6.6818 4.4271 1.1493 0
M  V30 67 H 7.7974 3.3519 1.6079 0
M  V30 68 H -6.4333 -0.5498 1.4522 0
M  V30 69 H -3.8816 -1.5664 -1.3939 0
M  V30 70 H -6.8654 -2.7162 2.2639 0
M  V30 71 H -5.6734 -3.0844 -0.0886 0
M  V30 72 H -6.69 -0.3587 -1.0705 0
M  V30 73 H -4.4862 -0.0625 -3.3034 0
M  V30 74 H -4.9576 1.2052 -2.1446 0
M  V30 75 H -7.8914 -2.6714 -0.791 0
M  V30 76 H -6.4309 -1.3218 -3.2143 0
M  V30 77 H -5.8299 -2.7082 -2.6054 0
M  V30 78 H -2.7506 0.7768 -1.2717 0
M  V30 END ATOM
M  V30 BEGIN BOND
M  V30 1 1 1 2
M  V30 2 1 1 3
M  V30 3 1 2 4
M  V30 4 1 2 5
M  V30 5 1 3 6
M  V30 6 1 3 7
M  V30 7 1 4 8
M  V30 8 1 5 9
M  V30 9 1 5 10
M  V30 10 1 6 11
M  V30 11 1 6 12
M  V30 12 1 7 13
M  V30 13 1 8 14
M  V30 14 1 8 15
M  V30 15 1 12 16
M  V30 16 1 12 17
M  V30 17 1 14 18
M  V30 18 1 14 19
M  V30 19 1 15 20
M  V30 20 1 15 21
M  V30 21 1 16 22
M  V30 22 1 17 23
M  V30 23 1 19 24
M  V30 24 1 19 25
M  V30 25 1 23 26
M  V30 26 1 25 27
M  V30 27 1 26 28
M  V30 28 1 26 29
M  V30 29 1 28 30
M  V30 30 1 29 31
M  V30 31 1 29 32
M  V30 32 1 30 33
M  V30 33 1 30 34
M  V30 34 1 32 35
M  V30 35 1 33 36
M  V30 36 1 34 37
M  V30 37 1 7 10
M  V30 38 1 13 17
M  V30 39 1 21 25
M  V30 40 1 32 33
M  V30 41 1 2 38
M  V30 42 1 3 39
M  V30 43 1 5 40
M  V30 44 1 6 41
M  V30 45 1 7 42
M  V30 46 1 8 43
M  V30 47 1 9 44
M  V30 48 1 9 45
M  V30 49 1 10 46
M  V30 50 1 10 47
M  V30 51 1 11 48
M  V30 52 1 12 49
M  V30 53 1 14 50
M  V30 54 1 15 51
M  V30 55 1 16 52
M  V30 56 1 17 53
M  V30 57 1 18 54
M  V30 58 1 19 55
M  V30 59 1 20 56
M  V30 60 1 20 57
M  V30 61 1 21 58
M  V30 62 1 21 59
M  V30 63 1 22 60
M  V30 64 1 22 61
M  V30 65 1 22 62
M  V30 66 1 24 63
M  V30 67 1 25 64
M  V30 68 1 26 65
M  V30 69 1 27 66
M  V30 70 1 27 67
M  V30 71 1 29 68
M  V30 72 1 30 69
M  V30 73 1 31 70
M  V30 74 1 32 71
M  V30 75 1 33 72
M  V30 76 1 34 73
M  V30 77 1 34 74
M  V30 78 1 35 75
M  V30 79 1 36 76
M  V30 80 1 36 77
M  V30 81 1 37 78
M  V30 END BOND
M  V30 BEGIN COLLECTION
M  V30 MDLV30/STEABS ATOMS=(17 2 3 5 6 7 8 12 14 15 17 19 25 26 29 30 32 33)
M  V30 END COLLECTION
M  V30 END CTAB
M  END
>  <level_0>
1936

>  <index>
1936

>  <NO.>
1937

>  <Name>
sr-05000001656

>  <SMILES>
CN[C@@H]1[C@@H](O[C@H]2O[C@H](CO)[C@@H](N)[C@H](O)[C@H]2O)O[C@H]2C[C@@H](N)[C@H](O[C@@H]3[C@@H](N)C[C@@H](N)[C@H](O)[C@H]3O)O[C@@H]2[C@@H]1O

>  <logBB>


>  <Class>
-1

>  <MW>
539.28

>  <nHBAcc>
16

>  <nHBDon>
11

>  <SLogP>
-6.95

>  <TopoPSA>
283.64

>  <MMFF94 Energy>
286.66

$$$$
CN[C@@H]1[C@H](O[C@H]2[C@H](O[C@@H]3[C@@H](N=C(N)N)[C@H](O)[C@@H](N=C(N)N)[C@H](O)[C@H]3O)O[C@@H](C)[C@]2(O)C=O)O[C@@H](CO)[C@H](O)[C@H]1O
Actelion Java MolfileCreator 2.0

  0  0  0  0  0  0              0 V3000
M  V30 BEGIN CTAB
M  V30 COUNTS 79 81 0 0 0
M  V30 BEGIN ATOM
M  V30 1 O 2.1347 0.8693 3.1639 0
M  V30 2 C 1.0465 1.3803 2.9136 0
M  V30 3 C 0.7269 2.2648 1.6995 0 CFG=2
M  V30 4 O 0.3164 3.5329 2.2154 0
M  V30 5 C -0.3297 1.5651 0.8334 0 CFG=1
M  V30 6 C 1.9348 2.3596 0.7547 0 CFG=1
M  V30 7 O -0.9802 2.4522 -0.0968 0
M  V30 8 C 0.57 0.5988 0.0386 0 CFG=1
M  V30 9 O 1.7764 1.3275 -0.2396 0
M  V30 10 C 2.0808 3.6907 0.0267 0
M  V30 11 C -2.1581 3.0884 0.396 0 CFG=2
M  V30 12 O 0.8533 -0.5386 0.8583 0
M  V30 13 O -3.1833 2.1435 0.7258 0
M  V30 14 C -2.6669 4.1249 -0.6497 0 CFG=1
M  V30 15 C 1.6405 -1.5317 0.1653 0 CFG=1
M  V30 16 C -3.6619 1.407 -0.419 0 CFG=2
M  V30 17 N -1.6718 5.1192 -1.1299 0
M  V30 18 C -3.1809 3.3666 -1.8883 0 CFG=1
M  V30 19 C 2.7261 -2.0058 1.1385 0 CFG=2
M  V30 20 C 0.762 -2.736 -0.2029 0 CFG=1
M  V30 21 C -4.2379 2.3392 -1.4857 0 CFG=1
M  V30 22 C -4.724 0.4188 0.0761 0
M  V30 23 C -1.3181 6.088 -0.0995 0
M  V30 24 O -3.7713 4.2871 -2.822 0
M  V30 25 O 3.593 -0.9241 1.5265 0
M  V30 26 C 3.6128 -3.1004 0.5346 0 CFG=1
M  V30 27 N -0.2691 -2.3516 -1.1891 0
M  V30 28 C 1.6039 -3.8503 -0.854 0 CFG=1
M  V30 29 O -4.6547 1.6061 -2.6392 0
M  V30 30 O -4.1578 -0.4233 1.089 0
M  V30 31 O 4.5109 -3.5124 1.5933 0
M  V30 32 C 2.8113 -4.3038 0.0018 0 CFG=1
M  V30 33 C -1.4637 -2.091 -0.8116 0
M  V30 34 O 0.719 -4.9648 -1.0837 0
M  V30 35 N 3.6556 -5.138 -0.8869 0
M  V30 36 N -2.3797 -1.7716 -1.739 0
M  V30 37 N -1.9895 -2.0663 0.4233 0
M  V30 38 C 4.5318 -5.9273 -0.3926 0
M  V30 39 N 5.214 -6.7477 -1.209 0
M  V30 40 N 4.9158 -6.0718 0.8864 0
M  V30 41 H 0.1956 1.21 3.5968 0
M  V30 42 H -0.4088 3.4026 2.8496 0
M  V30 43 H -1.0732 1.0142 1.4206 0
M  V30 44 H 2.8808 2.1674 1.2717 0
M  V30 45 H 0.11 0.3025 -0.9087 0
M  V30 46 H 2.9339 3.652 -0.6596 0
M  V30 47 H 1.2039 3.91 -0.588 0
M  V30 48 H 2.2405 4.5165 0.726 0
M  V30 49 H -1.9291 3.6245 1.3189 0
M  V30 50 H -3.5231 4.6688 -0.2267 0
M  V30 51 H 2.1101 -1.0962 -0.7263 0
M  V30 52 H -2.8265 0.8246 -0.8238 0
M  V30 53 H -0.823 4.6087 -1.3956 0
M  V30 54 H -2.3613 2.8695 -2.4233 0
M  V30 55 H 2.2727 -2.3642 2.0722 0
M  V30 56 H 0.2941 -3.1517 0.6977 0
M  V30 57 H -5.1221 2.8627 -1.1005 0
M  V30 58 H -5.0905 -0.2217 -0.7306 0
M  V30 59 H -5.5742 0.9415 0.5269 0
M  V30 60 H -0.6195 6.8193 -0.5177 0
M  V30 61 H -2.1997 6.6369 0.2464 0
M  V30 62 H -0.8295 5.6165 0.757 0
M  V30 63 H -3.155 5.0506 -2.8279 0
M  V30 64 H 3.0351 -0.2813 2.0172 0
M  V30 65 H 4.2444 -2.6803 -0.2583 0
M  V30 66 H 1.9565 -3.5202 -1.8406 0
M  V30 67 H -4.7817 2.2824 -3.3374 0
M  V30 68 H -3.8473 0.1986 1.7761 0
M  V30 69 H 4.8987 -2.6676 1.9069 0
M  V30 70 H 2.4457 -4.9224 0.8325 0
M  V30 71 H -0.0305 -4.5772 -1.5759 0
M  V30 72 H -3.3677 -1.8072 -1.5441 0
M  V30 73 H -2.0874 -1.7793 -2.7071 0
M  V30 74 H -2.9185 -1.686 0.5959 0
M  V30 75 H -1.4404 -2.2882 1.238 0
M  V30 76 H 5.6624 -7.5782 -0.8627 0
M  V30 77 H 4.9525 -6.7169 -2.185 0
M  V30 78 H 5.7797 -6.5362 1.1078 0
M  V30 79 H 4.6482 -5.3206 1.5227 0
M  V30 END ATOM
M  V30 BEGIN BOND
M  V30 1 2 1 2
M  V30 2 1 2 3
M  V30 3 1 3 4
M  V30 4 1 3 5
M  V30 5 1 3 6
M  V30 6 1 5 7
M  V30 7 1 5 8
M  V30 8 1 6 9
M  V30 9 1 6 10
M  V30 10 1 7 11
M  V30 11 1 8 12
M  V30 12 1 11 13
M  V30 13 1 11 14
M  V30 14 1 12 15
M  V30 15 1 13 16
M  V30 16 1 14 17
M  V30 17 1 14 18
M  V30 18 1 15 19
M  V30 19 1 15 20
M  V30 20 1 16 21
M  V30 21 1 16 22
M  V30 22 1 17 23
M  V30 23 1 18 24
M  V30 24 1 19 25
M  V30 25 1 19 26
M  V30 26 1 20 27
M  V30 27 1 20 28
M  V30 28 1 21 29
M  V30 29 1 22 30
M  V30 30 1 26 31
M  V30 31 1 26 32
M  V30 32 2 27 33
M  V30 33 1 28 34
M  V30 34 1 32 35
M  V30 35 1 33 36
M  V30 36 1 33 37
M  V30 37 2 35 38
M  V30 38 1 38 39
M  V30 39 1 38 40
M  V30 40 1 8 9
M  V30 41 1 18 21
M  V30 42 1 28 32
M  V30 43 1 2 41
M  V30 44 1 4 42
M  V30 45 1 5 43
M  V30 46 1 6 44
M  V30 47 1 8 45
M  V30 48 1 10 46
M  V30 49 1 10 47
M  V30 50 1 10 48
M  V30 51 1 11 49
M  V30 52 1 14 50
M  V30 53 1 15 51
M  V30 54 1 16 52
M  V30 55 1 17 53
M  V30 56 1 18 54
M  V30 57 1 19 55
M  V30 58 1 20 56
M  V30 59 1 21 57
M  V30 60 1 22 58
M  V30 61 1 22 59
M  V30 62 1 23 60
M  V30 63 1 23 61
M  V30 64 1 23 62
M  V30 65 1 24 63
M  V30 66 1 25 64
M  V30 67 1 26 65
M  V30 68 1 28 66
M  V30 69 1 29 67
M  V30 70 1 30 68
M  V30 71 1 31 69
M  V30 72 1 32 70
M  V30 73 1 34 71
M  V30 74 1 36 72
M  V30 75 1 36 73
M  V30 76 1 37 74
M  V30 77 1 37 75
M  V30 78 1 39 76
M  V30 79 1 39 77
M  V30 80 1 40 78
M  V30 81 1 40 79
M  V30 END BOND
M  V30 BEGIN COLLECTION
M  V30 MDLV30/STEABS ATOMS=(15 3 5 6 8 11 14 15 16 18 19 20 21 26 28 32)
M  V30 END COLLECTION
M  V30 END CTAB
M  END
>  <level_0>
1937

>  <index>
1937

>  <NO.>
1938

>  <Name>
streptomycin

>  <SMILES>
CN[C@@H]1[C@H](O[C@H]2[C@H](O[C@@H]3[C@@H](N=C(N)N)[C@H](O)[C@@H](N=C(N)N)[C@H](O)[C@H]3O)O[C@@H](C)[C@]2(O)C=O)O[C@@H](CO)[C@H](O)[C@H]1O

>  <logBB>


>  <Class>
-1

>  <MW>
581.27

>  <nHBAcc>
15

>  <nHBDon>
12

>  <SLogP>
-8.16

>  <TopoPSA>
336.43

>  <MMFF94 Energy>
-2.3174

$$$$
CN[C@@H]1[C@H](O[C@H]2[C@H](O[C@@H]3[C@@H](O)[C@H](O)[C@@H](N=C(N)N)[C@H](O)[C@H]3N=C(N)N)O[C@@H](C)[C@]2(O)CO)O[C@@H](CO)[C@H](O)[C@H]1O
Actelion Java MolfileCreator 2.0

  0  0  0  0  0  0              0 V3000
M  V30 BEGIN CTAB
M  V30 COUNTS 81 83 0 0 0
M  V30 BEGIN ATOM
M  V30 1 O 0.4728 2.7609 2.2872 0
M  V30 2 C -0.9515 2.6412 2.3075 0 CFG=1
M  V30 3 C 1.1096 1.7499 3.0902 0 CFG=2
M  V30 4 O -1.3606 1.4002 1.7412 0
M  V30 5 C -1.534 2.8075 3.7465 0 CFG=1
M  V30 6 C 0.7137 1.9413 4.5585 0 CFG=1
M  V30 7 C 2.6203 1.8751 2.8684 0
M  V30 8 C -1.1923 1.3309 0.3152 0 CFG=2
M  V30 9 N -3.0066 2.6018 3.7567 0
M  V30 10 C -0.8129 1.8368 4.7098 0 CFG=1
M  V30 11 O 1.3223 0.9669 5.416 0
M  V30 12 O 3.0939 3.1412 3.3276 0
M  V30 13 C -2.5179 1.5996 -0.4059 0 CFG=2
M  V30 14 C -0.9131 -0.1316 -0.0665 0 CFG=1
M  V30 15 C -3.6854 3.4415 4.7299 0
M  V30 16 O -1.1233 2.1406 6.0833 0
M  V30 17 O -3.294 2.6597 0.1846 0
M  V30 18 C -3.2154 0.2302 -0.3251 0 CFG=1
M  V30 19 C -2.2799 2.0022 -1.8762 0
M  V30 20 O -2.1804 -0.7705 -0.2933 0
M  V30 21 O -0.1385 -0.1787 -1.2692 0
M  V30 22 C -4.1093 0.0254 0.8937 0
M  V30 23 O -3.5148 2.3465 -2.513 0
M  V30 24 C 0.6463 -1.3909 -1.3478 0 CFG=2
M  V30 25 C 2.0682 -1.06 -0.8633 0 CFG=1
M  V30 26 C 0.6932 -1.8723 -2.8117 0 CFG=2
M  V30 27 O 2.0737 -0.6781 0.5255 0
M  V30 28 C 2.998 -2.2567 -1.0302 0 CFG=2
M  V30 29 N -0.6252 -2.3975 -3.2156 0
M  V30 30 C 1.6866 -3.0415 -3.0272 0 CFG=2
M  V30 31 O 4.3042 -1.8785 -0.5568 0
M  V30 32 C 3.0926 -2.7307 -2.4886 0 CFG=2
M  V30 33 C -1.439 -1.692 -3.9048 0
M  V30 34 O 1.7282 -3.2695 -4.4537 0
M  V30 35 N 3.9802 -3.9159 -2.4357 0
M  V30 36 N -2.625 -2.2232 -4.2416 0
M  V30 37 N -1.2948 -0.4523 -4.3998 0
M  V30 38 C 4.4766 -4.4002 -3.5116 0
M  V30 39 N 5.3467 -5.4193 -3.4344 0
M  V30 40 N 4.2536 -4.03 -4.7819 0
M  V30 41 H -1.3416 3.4643 1.6986 0
M  V30 42 H 0.8166 0.7523 2.7408 0
M  V30 43 H -1.3041 3.8344 4.064 0
M  V30 44 H 1.0227 2.9299 4.9224 0
M  V30 45 H 2.8609 1.8047 1.8026 0
M  V30 46 H 3.1692 1.0916 3.3986 0
M  V30 47 H -0.3816 1.9942 -0.008 0
M  V30 48 H -3.3963 2.7508 2.8251 0
M  V30 49 H -1.1389 0.8037 4.5333 0
M  V30 50 H 2.2488 1.2458 5.5412 0
M  V30 51 H 2.5933 3.807 2.8188 0
M  V30 52 H -0.4146 -0.6517 0.7586 0
M  V30 53 H -4.7614 3.2445 4.6872 0
M  V30 54 H -3.3623 3.2332 5.7529 0
M  V30 55 H -3.5344 4.5043 4.5152 0
M  V30 56 H -0.5952 1.5026 6.6014 0
M  V30 57 H -2.8062 3.4917 0.0514 0
M  V30 58 H -3.8255 0.0419 -1.2158 0
M  V30 59 H -1.8098 1.2162 -2.4632 0
M  V30 60 H -1.6462 2.8941 -1.9277 0
M  V30 61 H -4.5406 -0.9817 0.8744 0
M  V30 62 H -4.9305 0.7477 0.9157 0
M  V30 63 H -3.5484 0.0964 1.8299 0
M  V30 64 H -4.1028 2.6945 -1.8136 0
M  V30 65 H 0.1952 -2.1726 -0.7212 0
M  V30 66 H 2.46 -0.1893 -1.4039 0
M  V30 67 H 1.0005 -1.0446 -3.4623 0
M  V30 68 H 3.0145 -0.7654 0.7895 0
M  V30 69 H 2.6679 -3.0747 -0.3761 0
M  V30 70 H 1.3064 -3.9627 -2.5668 0
M  V30 71 H 4.8848 -2.5964 -0.8904 0
M  V30 72 H 3.5798 -1.9551 -3.095 0
M  V30 73 H 0.7808 -3.361 -4.6947 0
M  V30 74 H -3.3779 -1.6818 -4.6312 0
M  V30 75 H -2.8398 -3.1371 -3.8662 0
M  V30 76 H -2.0608 0.0248 -4.8487 0
M  V30 77 H -0.491 0.1076 -4.1627 0
M  V30 78 H 5.8892 -5.7322 -4.2212 0
M  V30 79 H 5.5721 -5.7762 -2.5167 0
M  V30 80 H 4.5378 -4.6137 -5.5503 0
M  V30 81 H 3.4173 -3.4685 -4.9516 0
M  V30 END ATOM
M  V30 BEGIN BOND
M  V30 1 1 1 2
M  V30 2 1 1 3
M  V30 3 1 2 4
M  V30 4 1 2 5
M  V30 5 1 3 6
M  V30 6 1 3 7
M  V30 7 1 4 8
M  V30 8 1 5 9
M  V30 9 1 5 10
M  V30 10 1 6 11
M  V30 11 1 7 12
M  V30 12 1 8 13
M  V30 13 1 8 14
M  V30 14 1 9 15
M  V30 15 1 10 16
M  V30 16 1 13 17
M  V30 17 1 13 18
M  V30 18 1 13 19
M  V30 19 1 14 20
M  V30 20 1 14 21
M  V30 21 1 18 22
M  V30 22 1 19 23
M  V30 23 1 21 24
M  V30 24 1 24 25
M  V30 25 1 24 26
M  V30 26 1 25 27
M  V30 27 1 25 28
M  V30 28 1 26 29
M  V30 29 1 26 30
M  V30 30 1 28 31
M  V30 31 1 28 32
M  V30 32 2 29 33
M  V30 33 1 30 34
M  V30 34 1 32 35
M  V30 35 1 33 36
M  V30 36 1 33 37
M  V30 37 2 35 38
M  V30 38 1 38 39
M  V30 39 1 38 40
M  V30 40 1 6 10
M  V30 41 1 18 20
M  V30 42 1 30 32
M  V30 43 1 2 41
M  V30 44 1 3 42
M  V30 45 1 5 43
M  V30 46 1 6 44
M  V30 47 1 7 45
M  V30 48 1 7 46
M  V30 49 1 8 47
M  V30 50 1 9 48
M  V30 51 1 10 49
M  V30 52 1 11 50
M  V30 53 1 12 51
M  V30 54 1 14 52
M  V30 55 1 15 53
M  V30 56 1 15 54
M  V30 57 1 15 55
M  V30 58 1 16 56
M  V30 59 1 17 57
M  V30 60 1 18 58
M  V30 61 1 19 59
M  V30 62 1 19 60
M  V30 63 1 22 61
M  V30 64 1 22 62
M  V30 65 1 22 63
M  V30 66 1 23 64
M  V30 67 1 24 65
M  V30 68 1 25 66
M  V30 69 1 26 67
M  V30 70 1 27 68
M  V30 71 1 28 69
M  V30 72 1 30 70
M  V30 73 1 31 71
M  V30 74 1 32 72
M  V30 75 1 34 73
M  V30 76 1 36 74
M  V30 77 1 36 75
M  V30 78 1 37 76
M  V30 79 1 37 77
M  V30 80 1 39 78
M  V30 81 1 39 79
M  V30 82 1 40 80
M  V30 83 1 40 81
M  V30 END BOND
M  V30 BEGIN COLLECTION
M  V30 MDLV30/STEABS ATOMS=(15 2 3 5 6 8 10 13 14 18 24 25 26 28 30 32)
M  V30 END COLLECTION
M  V30 END CTAB
M  END
>  <level_0>
1938

>  <index>
1938

>  <NO.>
1939

>  <Name>
prestwick0_000159

>  <SMILES>
CN[C@@H]1[C@H](O[C@H]2[C@H](O[C@@H]3[C@@H](O)[C@H](O)[C@@H](N=C(N)N)[C@H](O)[C@H]3N=C(N)N)O[C@@H](C)[C@]2(O)CO)O[C@@H](CO)[C@H](O)[C@H]1O

>  <logBB>


>  <Class>
-1

>  <MW>
583.28

>  <nHBAcc>
15

>  <nHBDon>
13

>  <SLogP>
-8.37

>  <TopoPSA>
339.59

>  <MMFF94 Energy>
20.211

$$$$
CN[C@H](CC(C)C)C(=O)NC1C(=O)N[C@@H](CC(N)=O)C(=O)N[C@H]2C(=O)N[C@H]3C(=O)N[C@H](C(=O)N[C@@H](C(=O)O)c4cc(O)cc(O)c4-c4cc3ccc4O)[C@H](O)c3ccc(c(Cl)c3)Oc3cc2cc(c3O[C@@H]2O[C@H](CO)[C@@H](O)[C@H](O)[C@H]2O[C@H]2C[C@](C)(N)[C@H](O)[C@H](C)O2)Oc2ccc(cc2Cl)[C@H]1O
Actelion Java MolfileCreator 2.0

  0  0  0  0  0  0              0 V3000
M  V30 BEGIN CTAB
M  V30 COUNTS 176 185 0 0 0
M  V30 BEGIN ATOM
M  V30 1 Cl 4.3541 -2.8204 -2.3365 0
M  V30 2 C 2.7763 -3.4782 -2.1169 0
M  V30 3 C 2.2206 -3.6317 -0.8441 0
M  V30 4 C 1.999 -3.7663 -3.2388 0
M  V30 5 O 2.8348 -3.0963 0.2646 0
M  V30 6 C 0.9711 -4.2333 -0.6791 0
M  V30 7 C 0.6823 -4.2355 -3.0881 0
M  V30 8 C 2.4415 -1.8113 0.6199 0
M  V30 9 C 0.2055 -4.5383 -1.8015 0
M  V30 10 C -0.2405 -4.3006 -4.2916 0 CFG=1
M  V30 11 C 2.8494 -1.3329 1.8703 0
M  V30 12 C 1.6761 -0.9756 -0.2145 0
M  V30 13 O -0.6771 -5.6556 -4.4709 0
M  V30 14 C -1.4739 -3.3713 -4.1344 0
M  V30 15 O 3.6612 -2.0749 2.6868 0
M  V30 16 C 2.5073 -0.0312 2.2616 0
M  V30 17 C 1.3417 0.3378 0.1517 0
M  V30 18 N -2.3867 -3.473 -5.2762 0
M  V30 19 C -1.0245 -1.9002 -4.0024 0
M  V30 20 C 2.9677 -3.1284 3.3801 0 CFG=2
M  V30 21 O 2.8983 0.3958 3.523 0
M  V30 22 C 1.7828 0.8061 1.3918 0
M  V30 23 C 0.4602 1.1559 -0.7899 0 CFG=1
M  V30 24 C -3.7003 -3.0701 -5.1828 0
M  V30 25 O -0.0634 -1.4348 -4.609 0
M  V30 26 N -1.8505 -1.1302 -3.2151 0
M  V30 27 O 2.1323 -2.5661 4.404 0
M  V30 28 C 4.0591 -4.06 3.964 0 CFG=2
M  V30 29 C 1.9889 1.1954 4.1863 0
M  V30 30 N -0.9258 0.7575 -0.5646 0
M  V30 31 C 0.7962 2.6739 -0.7637 0
M  V30 32 O -4.1516 -2.5454 -4.1648 0
M  V30 33 C -4.5634 -3.3252 -6.4387 0 CFG=2
M  V30 34 C -1.6389 0.2992 -2.9571 0 CFG=2
M  V30 35 C 1.4832 -3.5592 5.2052 0 CFG=1
M  V30 36 O 4.6662 -4.8058 2.8859 0
M  V30 37 C 3.4447 -5.0653 4.9456 0 CFG=2
M  V30 38 C 2.3514 2.4824 4.588 0
M  V30 39 C 0.6862 0.7343 4.4029 0
M  V30 40 C -1.9191 0.4834 -1.4522 0
M  V30 41 O 1.8444 3.072 -1.291 0
M  V30 42 N 0.0901 3.6095 -0.0813 0
M  V30 43 N -4.6109 -4.7699 -6.7543 0
M  V30 44 C -4.0067 -2.5267 -7.6335 0
M  V30 45 C -2.6279 1.1153 -3.7861 0
M  V30 46 C 2.5387 -4.3701 5.9631 0 CFG=2
M  V30 47 C 0.5209 -2.8354 6.1522 0
M  V30 48 C 6.0816 -4.8993 3.0144 0 CFG=2
M  V30 49 O 4.4733 -5.7783 5.6537 0
M  V30 50 Cl 3.9635 3.0622 4.3918 0
M  V30 51 C 1.3783 3.3492 5.0954 0
M  V30 52 C -0.283 1.6027 4.8964 0
M  V30 53 O -3.043 0.2728 -0.9803 0
M  V30 54 C -1.0805 3.5813 0.7842 0 CFG=1
M  V30 55 C -5.4033 -5.5116 -5.7795 0
M  V30 56 C -4.8466 -2.6079 -8.9258 0
M  V30 57 C -2.355 2.5886 -3.6372 0
M  V30 58 O 1.9476 -5.3744 6.7948 0
M  V30 59 O 1.2336 -1.9799 7.0406 0
M  V30 60 O 6.7211 -3.682 2.6278 0
M  V30 61 C 6.6166 -6.0875 2.2052 0
M  V30 62 C 0.0391 2.9367 5.2006 0
M  V30 63 C -0.6902 4.1036 2.2164 0
M  V30 64 C -2.1635 4.4934 0.2268 0
M  V30 65 C -6.2623 -2.06 -8.7401 0
M  V30 66 C -4.1409 -1.8399 -10.0473 0
M  V30 67 O -1.4619 3.0525 -2.9403 0
M  V30 68 N -3.1982 3.3969 -4.338 0
M  V30 69 C 6.5274 -3.3626 1.2391 0 CFG=2
M  V30 70 C 6.6121 -5.8457 0.6807 0 CFG=1
M  V30 71 C -1.0733 3.8975 5.5662 0 CFG=1
M  V30 72 O 0.4559 4.4419 2.4965 0
M  V30 73 N -1.7498 4.2531 3.1036 0
M  V30 74 C -2.0064 5.8859 0.3422 0
M  V30 75 C -3.3678 3.9894 -0.2697 0
M  V30 76 C 7.2085 -4.4415 0.3783 0 CFG=2
M  V30 77 C 7.1212 -1.9777 1.0054 0
M  V30 78 N 7.445 -6.8837 0.0225 0
M  V30 79 C 5.2074 -6.0084 0.0826 0
M  V30 80 O -0.7574 4.5679 6.7865 0
M  V30 81 C -1.5987 4.8536 4.443 0 CFG=2
M  V30 82 C -3.0817 6.7641 0.1564 0
M  V30 83 C -4.4126 4.8628 -0.5771 0
M  V30 84 O 8.6226 -4.4771 0.6875 0
M  V30 85 C -0.908 6.2412 4.4078 0
M  V30 86 C -2.9151 8.1612 0.5947 0
M  V30 87 C -4.2786 6.232 -0.3407 0
M  V30 88 O 0.0959 6.4837 5.0849 0
M  V30 89 N -1.4484 7.2816 3.6968 0
M  V30 90 C -2.9072 9.215 -0.3408 0
M  V30 91 C -2.7413 8.479 1.9755 0
M  V30 92 O -5.3832 6.9959 -0.5955 0
M  V30 93 C -2.7763 7.4081 3.0791 0 CFG=2
M  V30 94 O -3.0749 9.0031 -1.6839 0
M  V30 95 C -2.741 10.5396 0.0501 0
M  V30 96 C -2.5447 9.8291 2.3494 0
M  V30 97 C -3.8427 7.7059 4.1589 0
M  V30 98 C -2.5517 10.8364 1.39 0
M  V30 99 O -3.7604 7.4291 5.347 0
M  V30 100 O -4.9908 8.2254 3.677 0
M  V30 101 O -2.3788 12.1446 1.7308 0
M  V30 102 H 2.3949 -3.5491 -4.2298 0
M  V30 103 H 0.5655 -4.3876 0.317 0
M  V30 104 H -0.794 -4.9485 -1.663 0
M  V30 105 H 0.31 -4.0349 -5.2024 0
M  V30 106 H 1.3349 -1.3185 -1.1882 0
M  V30 107 H 0.0676 -6.2341 -4.2265 0
M  V30 108 H -2.048 -3.6576 -3.2443 0
M  V30 109 H -2.048 -3.9155 -6.1202 0
M  V30 110 H 2.3413 -3.6975 2.6808 0
M  V30 111 H 1.5726 1.8305 1.6918 0
M  V30 112 H 0.7336 0.8592 -1.8073 0
M  V30 113 H -2.7349 -1.5369 -2.9032 0
M  V30 114 H 4.8144 -3.4484 4.4767 0
M  V30 115 H -1.2209 0.6659 0.3961 0
M  V30 116 H -5.5717 -2.9607 -6.2093 0
M  V30 117 H -0.6162 0.5622 -3.2262 0
M  V30 118 H 0.8812 -4.2111 4.5586 0
M  V30 119 H 2.8836 -5.8322 4.396 0
M  V30 120 H 0.4152 -0.2818 4.1322 0
M  V30 121 H 0.5546 4.5085 -0.1424 0
M  V30 122 H -3.6706 -5.1593 -6.7827 0
M  V30 123 H -3.9047 -1.4741 -7.3347 0
M  V30 124 H -2.988 -2.8671 -7.863 0
M  V30 125 H -3.6646 0.918 -3.4864 0
M  V30 126 H -2.5381 0.855 -4.8479 0
M  V30 127 H 3.1596 -3.7299 6.6028 0
M  V30 128 H -0.1825 -2.2144 5.5885 0
M  V30 129 H -0.0563 -3.5452 6.752 0
M  V30 130 H 6.3441 -5.0814 4.0625 0
M  V30 131 H 4.002 -6.2947 6.3377 0
M  V30 132 H 1.6579 4.372 5.3392 0
M  V30 133 H -1.3024 1.2398 5.0105 0
M  V30 134 H -1.4567 2.5713 0.9253 0
M  V30 135 H -5.4488 -6.5635 -6.0783 0
M  V30 136 H -6.432 -5.139 -5.7391 0
M  V30 137 H -4.9658 -5.4698 -4.7771 0
M  V30 138 H -4.9225 -3.6555 -9.2415 0
M  V30 139 H 1.6752 -4.9257 7.6192 0
M  V30 140 H 1.739 -1.3585 6.4785 0
M  V30 141 H 7.6522 -6.2625 2.5289 0
M  V30 142 H 6.0455 -6.9922 2.4495 0
M  V30 143 H -6.8415 -2.6775 -8.047 0
M  V30 144 H -6.2442 -1.0355 -8.3531 0
M  V30 145 H -6.8036 -2.0514 -9.6925 0
M  V30 146 H -3.1386 -2.2437 -10.2248 0
M  V30 147 H -4.0403 -0.7775 -9.7999 0
M  V30 148 H -4.7013 -1.9178 -10.9851 0
M  V30 149 H -3.0609 4.3977 -4.273 0
M  V30 150 H -3.9446 3.0484 -4.9239 0
M  V30 151 H 5.4583 -3.3073 1.0177 0
M  V30 152 H -1.9354 3.2699 5.8313 0
M  V30 153 H -2.6659 3.9165 2.8321 0
M  V30 154 H -1.0579 6.2903 0.7038 0
M  V30 155 H -3.515 2.9193 -0.4016 0
M  V30 156 H 7.119 -4.2024 -0.6875 0
M  V30 157 H 8.1744 -1.9327 1.3021 0
M  V30 158 H 6.5962 -1.2359 1.6177 0
M  V30 159 H 7.0358 -1.6825 -0.0446 0
M  V30 160 H 8.4202 -6.571 0.0893 0
M  V30 161 H 7.3882 -7.7614 0.5345 0
M  V30 162 H 4.7979 -7.0037 0.293 0
M  V30 163 H 5.2252 -5.8832 -1.0067 0
M  V30 164 H 4.4969 -5.2791 0.4743 0
M  V30 165 H -0.1259 5.2847 6.5643 0
M  V30 166 H -2.6279 5.09 4.7458 0
M  V30 167 H -5.3517 4.4709 -0.9612 0
M  V30 168 H 8.7005 -4.2256 1.628 0
M  V30 169 H -0.8804 8.1174 3.764 0
M  V30 170 H -5.1648 7.9393 -0.4859 0
M  V30 171 H -3.0729 6.434 2.6909 0
M  V30 172 H -2.8639 8.076 -1.8935 0
M  V30 173 H -2.7447 11.3344 -0.6904 0
M  V30 174 H -2.4055 10.0883 3.3966 0
M  V30 175 H -5.5743 8.3182 4.4606 0
M  V30 176 H -2.2177 12.2148 2.6859 0
M  V30 END ATOM
M  V30 BEGIN BOND
M  V30 1 1 1 2
M  V30 2 2 2 3
M  V30 3 1 2 4
M  V30 4 1 3 5
M  V30 5 1 3 6
M  V30 6 2 4 7
M  V30 7 1 5 8
M  V30 8 2 6 9
M  V30 9 1 7 10
M  V30 10 2 8 11
M  V30 11 1 8 12
M  V30 12 1 10 13
M  V30 13 1 10 14
M  V30 14 1 11 15
M  V30 15 1 11 16
M  V30 16 2 12 17
M  V30 17 1 14 18
M  V30 18 1 14 19
M  V30 19 1 15 20
M  V30 20 1 16 21
M  V30 21 2 16 22
M  V30 22 1 17 23
M  V30 23 1 18 24
M  V30 24 2 19 25
M  V30 25 1 19 26
M  V30 26 1 20 27
M  V30 27 1 20 28
M  V30 28 1 21 29
M  V30 29 1 23 30
M  V30 30 1 23 31
M  V30 31 2 24 32
M  V30 32 1 24 33
M  V30 33 1 26 34
M  V30 34 1 27 35
M  V30 35 1 28 36
M  V30 36 1 28 37
M  V30 37 2 29 38
M  V30 38 1 29 39
M  V30 39 1 30 40
M  V30 40 2 31 41
M  V30 41 1 31 42
M  V30 42 1 33 43
M  V30 43 1 33 44
M  V30 44 1 34 45
M  V30 45 1 35 46
M  V30 46 1 35 47
M  V30 47 1 36 48
M  V30 48 1 37 49
M  V30 49 1 38 50
M  V30 50 1 38 51
M  V30 51 2 39 52
M  V30 52 2 40 53
M  V30 53 1 42 54
M  V30 54 1 43 55
M  V30 55 1 44 56
M  V30 56 1 45 57
M  V30 57 1 46 58
M  V30 58 1 47 59
M  V30 59 1 48 60
M  V30 60 1 48 61
M  V30 61 2 51 62
M  V30 62 1 54 63
M  V30 63 1 54 64
M  V30 64 1 56 65
M  V30 65 1 56 66
M  V30 66 2 57 67
M  V30 67 1 57 68
M  V30 68 1 60 69
M  V30 69 1 61 70
M  V30 70 1 62 71
M  V30 71 2 63 72
M  V30 72 1 63 73
M  V30 73 2 64 74
M  V30 74 1 64 75
M  V30 75 1 69 76
M  V30 76 1 69 77
M  V30 77 1 70 78
M  V30 78 1 70 79
M  V30 79 1 71 80
M  V30 80 1 71 81
M  V30 81 1 74 82
M  V30 82 2 75 83
M  V30 83 1 76 84
M  V30 84 1 81 85
M  V30 85 1 82 86
M  V30 86 2 82 87
M  V30 87 2 85 88
M  V30 88 1 85 89
M  V30 89 2 86 90
M  V30 90 1 86 91
M  V30 91 1 87 92
M  V30 92 1 89 93
M  V30 93 1 90 94
M  V30 94 1 90 95
M  V30 95 2 91 96
M  V30 96 1 93 97
M  V30 97 2 95 98
M  V30 98 2 97 99
M  V30 99 1 97 100
M  V30 100 1 98 101
M  V30 101 1 7 9
M  V30 102 1 17 22
M  V30 103 1 34 40
M  V30 104 1 37 46
M  V30 105 1 52 62
M  V30 106 1 70 76
M  V30 107 1 73 81
M  V30 108 1 83 87
M  V30 109 1 91 93
M  V30 110 1 96 98
M  V30 111 1 4 102
M  V30 112 1 6 103
M  V30 113 1 9 104
M  V30 114 1 10 105
M  V30 115 1 12 106
M  V30 116 1 13 107
M  V30 117 1 14 108
M  V30 118 1 18 109
M  V30 119 1 20 110
M  V30 120 1 22 111
M  V30 121 1 23 112
M  V30 122 1 26 113
M  V30 123 1 28 114
M  V30 124 1 30 115
M  V30 125 1 33 116
M  V30 126 1 34 117
M  V30 127 1 35 118
M  V30 128 1 37 119
M  V30 129 1 39 120
M  V30 130 1 42 121
M  V30 131 1 43 122
M  V30 132 1 44 123
M  V30 133 1 44 124
M  V30 134 1 45 125
M  V30 135 1 45 126
M  V30 136 1 46 127
M  V30 137 1 47 128
M  V30 138 1 47 129
M  V30 139 1 48 130
M  V30 140 1 49 131
M  V30 141 1 51 132
M  V30 142 1 52 133
M  V30 143 1 54 134
M  V30 144 1 55 135
M  V30 145 1 55 136
M  V30 146 1 55 137
M  V30 147 1 56 138
M  V30 148 1 58 139
M  V30 149 1 59 140
M  V30 150 1 61 141
M  V30 151 1 61 142
M  V30 152 1 65 143
M  V30 153 1 65 144
M  V30 154 1 65 145
M  V30 155 1 66 146
M  V30 156 1 66 147
M  V30 157 1 66 148
M  V30 158 1 68 149
M  V30 159 1 68 150
M  V30 160 1 69 151
M  V30 161 1 71 152
M  V30 162 1 73 153
M  V30 163 1 74 154
M  V30 164 1 75 155
M  V30 165 1 76 156
M  V30 166 1 77 157
M  V30 167 1 77 158
M  V30 168 1 77 159
M  V30 169 1 78 160
M  V30 170 1 78 161
M  V30 171 1 79 162
M  V30 172 1 79 163
M  V30 173 1 79 164
M  V30 174 1 80 165
M  V30 175 1 81 166
M  V30 176 1 83 167
M  V30 177 1 84 168
M  V30 178 1 89 169
M  V30 179 1 92 170
M  V30 180 1 93 171
M  V30 181 1 94 172
M  V30 182 1 95 173
M  V30 183 1 96 174
M  V30 184 1 100 175
M  V30 185 1 101 176
M  V30 END BOND
M  V30 BEGIN COLLECTION
M  V30 MDLV30/STEABS ATOMS=(17 10 20 23 28 33 34 35 37 46 48 54 69 70 71 76 81 93)
M  V30 END COLLECTION
M  V30 END CTAB
M  END
>  <level_0>
1939

>  <index>
1939

>  <NO.>
1940

>  <Name>
1404-90-6

>  <SMILES>
CN[C@H](CC(C)C)C(=O)NC1C(=O)N[C@@H](CC(N)=O)C(=O)N[C@H]2C(=O)N[C@H]3C(=O)N[C@H](C(=O)N[C@@H](C(=O)O)c4cc(O)cc(O)c4-c4cc3ccc4O)[C@H](O)c3ccc(c(Cl)c3)Oc3cc2cc(c3O[C@@H]2O[C@H](CO)[C@@H](O)[C@H](O)[C@H]2O[C@H]2C[C@](C)(N)[C@H](O)[C@H](C)O2)Oc2ccc(cc2Cl)[C@H]1O

>  <logBB>


>  <Class>
-1

>  <MW>
1447.43

>  <nHBAcc>
25

>  <nHBDon>
19

>  <SLogP>
0.11

>  <TopoPSA>
530.49

>  <MMFF94 Energy>
440.67

$$$$
CO/N=C(/C(=O)NC1C(=O)N(OCC(=O)O)[C@H]1C)c1csc(N)n1
Actelion Java MolfileCreator 2.0

  0  0  0  0  0  0              0 V3000
M  V30 BEGIN CTAB
M  V30 COUNTS 39 40 0 0 0
M  V30 BEGIN ATOM
M  V30 1 S 3.8844 3.6413 -2.5074 0
M  V30 2 C 4.9293 2.3005 -2.2956 0
M  V30 3 C 2.5954 2.7304 -1.8423 0
M  V30 4 N 4.3779 1.2397 -1.7656 0
M  V30 5 N 6.2163 2.3552 -2.6492 0
M  V30 6 C 3.0217 1.4565 -1.5065 0
M  V30 7 C 2.1704 0.4233 -0.9054 0
M  V30 8 N 2.2557 -0.8581 -1.1591 0
M  V30 9 C 1.0752 0.803 0.1126 0
M  V30 10 O 3.2058 -1.1574 -2.1444 0
M  V30 11 O 0.7853 1.9636 0.3593 0
M  V30 12 N 0.4582 -0.2809 0.7018 0
M  V30 13 C 3.2958 -2.569 -2.2818 0
M  V30 14 C -0.6034 -0.14 1.7201 0
M  V30 15 C -1.4775 -1.4067 1.9512 0
M  V30 16 C -1.9426 0.4858 1.211 0 CFG=1
M  V30 17 O -1.2799 -2.5934 2.0784 0
M  V30 18 N -2.6117 -0.6666 1.8277 0
M  V30 19 C -2.3804 1.7839 1.856 0
M  V30 20 O -3.6947 -1.229 1.1328 0
M  V30 21 C -4.7462 -1.4705 2.0618 0
M  V30 22 C -5.9806 -1.9864 1.3494 0
M  V30 23 O -6.1478 -2.1434 0.1513 0
M  V30 24 O -6.9816 -2.2742 2.2119 0
M  V30 25 H 1.6115 3.1663 -1.74 0
M  V30 26 H 6.6308 3.1796 -3.0597 0
M  V30 27 H 6.8037 1.5425 -2.5159 0
M  V30 28 H 0.7799 -1.2002 0.3964 0
M  V30 29 H 2.3303 -2.982 -2.5898 0
M  V30 30 H 3.616 -3.0216 -1.3383 0
M  V30 31 H 4.0382 -2.7954 -3.0515 0
M  V30 32 H -0.2111 0.272 2.6575 0
M  V30 33 H -2.058 0.4952 0.1192 0
M  V30 34 H -3.4197 2.0137 1.598 0
M  V30 35 H -2.3034 1.7459 2.9482 0
M  V30 36 H -1.7601 2.6147 1.5053 0
M  V30 37 H -5.0118 -0.5364 2.5697 0
M  V30 38 H -4.4237 -2.2269 2.7857 0
M  V30 39 H -7.7016 -2.5988 1.6297 0
M  V30 END ATOM
M  V30 BEGIN BOND
M  V30 1 1 1 2
M  V30 2 1 1 3
M  V30 3 2 2 4
M  V30 4 1 2 5
M  V30 5 2 3 6
M  V30 6 1 6 7
M  V30 7 2 7 8
M  V30 8 1 7 9
M  V30 9 1 8 10
M  V30 10 2 9 11
M  V30 11 1 9 12
M  V30 12 1 10 13
M  V30 13 1 12 14
M  V30 14 1 14 15
M  V30 15 1 14 16
M  V30 16 2 15 17
M  V30 17 1 15 18
M  V30 18 1 16 19
M  V30 19 1 18 20
M  V30 20 1 20 21
M  V30 21 1 21 22
M  V30 22 2 22 23
M  V30 23 1 22 24
M  V30 24 1 4 6
M  V30 25 1 16 18
M  V30 26 1 3 25
M  V30 27 1 5 26
M  V30 28 1 5 27
M  V30 29 1 12 28
M  V30 30 1 13 29
M  V30 31 1 13 30
M  V30 32 1 13 31
M  V30 33 1 14 32
M  V30 34 1 16 33
M  V30 35 1 19 34
M  V30 36 1 19 35
M  V30 37 1 19 36
M  V30 38 1 21 37
M  V30 39 1 21 38
M  V30 40 1 24 39
M  V30 END BOND
M  V30 BEGIN COLLECTION
M  V30 MDLV30/STEABS ATOMS=(1 16)
M  V30 END COLLECTION
M  V30 END CTAB
M  END
>  <level_0>
1942

>  <index>
1942

>  <NO.>
1943

>  <Name>
oximonam

>  <SMILES>
CO/N=C(/C(=O)NC1C(=O)N(OCC(=O)O)[C@H]1C)c1csc(N)n1

>  <logBB>


>  <Class>
-1

>  <MW>
357.07

>  <nHBAcc>
9

>  <nHBDon>
3

>  <SLogP>
-1.19

>  <TopoPSA>
156.44

>  <MMFF94 Energy>
91.869

$$$$
CO/N=C(/C(=O)N[C@@H]1C(=O)N(OCC(=O)OCC(=O)OC(C)(C)C)[C@H]1C)c1csc(N)n1
Actelion Java MolfileCreator 2.0

  0  0  0  0  0  0              0 V3000
M  V30 BEGIN CTAB
M  V30 COUNTS 57 58 0 0 0
M  V30 BEGIN ATOM
M  V30 1 S 0.1603 -4.4974 5.6241 0
M  V30 2 C 0.8505 -3.1385 4.841 0
M  V30 3 C 0.0384 -5.2986 4.1152 0
M  V30 4 N 0.9879 -3.2505 3.5434 0
M  V30 5 N 1.2238 -2.0522 5.5211 0
M  V30 6 C 0.5094 -4.4884 3.0978 0
M  V30 7 C 0.5836 -4.8266 1.6719 0
M  V30 8 N -0.2927 -5.5408 1.0195 0
M  V30 9 C 1.7626 -4.293 0.8362 0
M  V30 10 O -1.3981 -5.9258 1.789 0
M  V30 11 O 2.277 -4.978 -0.0377 0
M  V30 12 N 2.1762 -3.0126 1.1384 0
M  V30 13 C -2.2787 -6.6796 0.9627 0
M  V30 14 C 3.3071 -2.3613 0.4398 0 CFG=2
M  V30 15 C 3.3932 -0.8176 0.6149 0
M  V30 16 C 3.0813 -2.0204 -1.0677 0 CFG=1
M  V30 17 O 3.8241 -0.0662 1.4591 0
M  V30 18 N 2.8794 -0.635 -0.6302 0
M  V30 19 C 4.2725 -2.2066 -1.9894 0
M  V30 20 O 3.3392 0.4358 -1.4077 0
M  V30 21 C 2.2284 1.1049 -1.9872 0
M  V30 22 C 1.307 1.8849 -1.0511 0
M  V30 23 O 1.3576 1.91 0.1697 0
M  V30 24 O 0.3779 2.5562 -1.7919 0
M  V30 25 C -0.5389 3.325 -1.0086 0
M  V30 26 C -1.5467 4.0251 -1.9046 0
M  V30 27 O -1.5845 3.9384 -3.1236 0
M  V30 28 O -2.3975 4.7584 -1.1321 0
M  V30 29 C -3.4667 5.5348 -1.7334 0
M  V30 30 C -2.9113 6.6312 -2.6488 0
M  V30 31 C -4.1797 6.201 -0.5465 0
M  V30 32 C -4.4681 4.6318 -2.4617 0
M  V30 33 H -0.3586 -6.3017 4.0516 0
M  V30 34 H 1.1157 -1.9806 6.524 0
M  V30 35 H 1.6379 -1.2612 5.0426 0
M  V30 36 H 1.7438 -2.565 1.9509 0
M  V30 37 H -1.7747 -7.5778 0.593 0
M  V30 38 H -2.627 -6.0687 0.1242 0
M  V30 39 H -3.1416 -6.9807 1.5624 0
M  V30 40 H 4.2535 -2.8677 0.6607 0
M  V30 41 H 2.1616 -2.4364 -1.4958 0
M  V30 42 H 4.4716 -3.2729 -2.1384 0
M  V30 43 H 4.0766 -1.7666 -2.9728 0
M  V30 44 H 5.183 -1.7507 -1.5857 0
M  V30 45 H 1.6235 0.3826 -2.5491 0
M  V30 46 H 2.644 1.824 -2.7016 0
M  V30 47 H 0.0118 4.0914 -0.452 0
M  V30 48 H -1.0901 2.6608 -0.3336 0
M  V30 49 H -2.45 6.2168 -3.5502 0
M  V30 50 H -3.7009 7.3184 -2.9718 0
M  V30 51 H -2.1345 7.2094 -2.1359 0
M  V30 52 H -3.4844 6.8283 0.0235 0
M  V30 53 H -5.019 6.824 -0.8732 0
M  V30 54 H -4.5598 5.4471 0.1528 0
M  V30 55 H -4.035 4.1814 -3.3598 0
M  V30 56 H -4.7857 3.8043 -1.8173 0
M  V30 57 H -5.3567 5.192 -2.7726 0
M  V30 END ATOM
M  V30 BEGIN BOND
M  V30 1 1 1 2
M  V30 2 1 1 3
M  V30 3 2 2 4
M  V30 4 1 2 5
M  V30 5 2 3 6
M  V30 6 1 6 7
M  V30 7 2 7 8
M  V30 8 1 7 9
M  V30 9 1 8 10
M  V30 10 2 9 11
M  V30 11 1 9 12
M  V30 12 1 10 13
M  V30 13 1 12 14
M  V30 14 1 14 15
M  V30 15 1 14 16
M  V30 16 2 15 17
M  V30 17 1 15 18
M  V30 18 1 16 19
M  V30 19 1 18 20
M  V30 20 1 20 21
M  V30 21 1 21 22
M  V30 22 2 22 23
M  V30 23 1 22 24
M  V30 24 1 24 25
M  V30 25 1 25 26
M  V30 26 2 26 27
M  V30 27 1 26 28
M  V30 28 1 28 29
M  V30 29 1 29 30
M  V30 30 1 29 31
M  V30 31 1 29 32
M  V30 32 1 4 6
M  V30 33 1 16 18
M  V30 34 1 3 33
M  V30 35 1 5 34
M  V30 36 1 5 35
M  V30 37 1 12 36
M  V30 38 1 13 37
M  V30 39 1 13 38
M  V30 40 1 13 39
M  V30 41 1 14 40
M  V30 42 1 16 41
M  V30 43 1 19 42
M  V30 44 1 19 43
M  V30 45 1 19 44
M  V30 46 1 21 45
M  V30 47 1 21 46
M  V30 48 1 25 47
M  V30 49 1 25 48
M  V30 50 1 30 49
M  V30 51 1 30 50
M  V30 52 1 30 51
M  V30 53 1 31 52
M  V30 54 1 31 53
M  V30 55 1 31 54
M  V30 56 1 32 55
M  V30 57 1 32 56
M  V30 58 1 32 57
M  V30 END BOND
M  V30 BEGIN COLLECTION
M  V30 MDLV30/STEABS ATOMS=(2 14 16)
M  V30 END COLLECTION
M  V30 END CTAB
M  END
>  <level_0>
1944

>  <index>
1944

>  <NO.>
1945

>  <Name>
gloximonam

>  <SMILES>
CO/N=C(/C(=O)N[C@@H]1C(=O)N(OCC(=O)OCC(=O)OC(C)(C)C)[C@H]1C)c1csc(N)n1

>  <logBB>


>  <Class>
-1

>  <MW>
471.14

>  <nHBAcc>
12

>  <nHBDon>
2

>  <SLogP>
-0.39

>  <TopoPSA>
171.74

>  <MMFF94 Energy>
129.2

$$$$
CO/N=C(/C(=O)N[C@@H]1C(=O)N2C(C(=O)O)=C(/C=C/Sc3n[nH]c(=O)c(=O)n3CC=O)CS[C@H]12)c1csc(N)n1
Actelion Java MolfileCreator 2.0

  0  0  0  0  0  0              0 V3000
M  V30 BEGIN CTAB
M  V30 COUNTS 57 60 0 0 0
M  V30 BEGIN ATOM
M  V30 1 S -0.1659 -1.0789 -0.4148 0
M  V30 2 C 1.5777 -1.285 -0.852 0 CFG=1
M  V30 3 C -0.2017 0.6667 -0.9325 0
M  V30 4 N 2.3227 -0.3683 -0.0234 0
M  V30 5 C 2.395 -2.4298 -0.1769 0 CFG=1
M  V30 6 C 0.9399 1.5223 -0.3857 0
M  V30 7 C 2.0888 0.9675 0.0819 0
M  V30 8 C 3.1383 -1.2691 0.5587 0
M  V30 9 N 1.6749 -3.3896 0.6927 0
M  V30 10 C 0.7076 2.9777 -0.3786 0
M  V30 11 C 3.1534 1.7723 0.7457 0
M  V30 12 O 4.0147 -1.171 1.3844 0
M  V30 13 C 0.9597 -4.4406 0.1558 0
M  V30 14 C -0.3237 3.6324 -0.9396 0
M  V30 15 O 3.0151 2.5405 1.6798 0
M  V30 16 O 4.3443 1.5774 0.1485 0
M  V30 17 O 0.8452 -4.6588 -1.0414 0
M  V30 18 C 0.262 -5.3176 1.1947 0
M  V30 19 S -0.4313 5.3626 -0.8467 0
M  V30 20 N -0.438 -4.6732 2.0906 0
M  V30 21 C 0.4578 -6.7626 1.1333 0
M  V30 22 C -1.984 5.7393 -1.5857 0
M  V30 23 O -0.9794 -5.5038 3.0806 0
M  V30 24 N 1.6896 -7.2829 0.7356 0
M  V30 25 C -0.494 -7.7283 1.4082 0
M  V30 26 N -2.4493 4.9242 -2.4796 0
M  V30 27 N -2.6135 6.9076 -1.1993 0
M  V30 28 C -1.7118 -4.6972 3.9966 0
M  V30 29 C 1.6586 -8.5914 0.7296 0
M  V30 30 S 0.164 -9.2936 1.1899 0
M  V30 31 N -3.6349 5.2045 -3.0732 0
M  V30 32 C -3.7794 7.3099 -1.8422 0
M  V30 33 C -2.1093 7.8154 -0.1639 0
M  V30 34 N 2.7079 -9.3449 0.3903 0
M  V30 35 C -4.3869 6.3254 -2.8406 0
M  V30 36 O -4.3057 8.4043 -1.6723 0
M  V30 37 C -1.2025 8.8586 -0.7806 0
M  V30 38 O -5.4593 6.5379 -3.3849 0
M  V30 39 O -0.4307 9.5479 -0.1182 0
M  V30 40 H 1.7953 -1.1723 -1.9208 0
M  V30 41 H -1.1655 1.0399 -0.5706 0
M  V30 42 H -0.2078 0.7121 -2.0273 0
M  V30 43 H 3.0609 -2.958 -0.8714 0
M  V30 44 H 1.6357 -3.266 1.7007 0
M  V30 45 H 1.4612 3.5865 0.1218 0
M  V30 46 H -1.1081 3.1056 -1.4716 0
M  V30 47 H 4.9761 2.0736 0.7092 0
M  V30 48 H -1.5221 -7.5946 1.7127 0
M  V30 49 H -2.5297 -4.1854 3.48 0
M  V30 50 H -1.0492 -3.9671 4.4717 0
M  V30 51 H -2.1332 -5.3465 4.7684 0
M  V30 52 H -3.9903 4.5338 -3.7483 0
M  V30 53 H -1.5742 7.2799 0.6233 0
M  V30 54 H -2.9492 8.3453 0.2988 0
M  V30 55 H 2.6678 -10.3543 0.3825 0
M  V30 56 H 3.5736 -8.9031 0.11 0
M  V30 57 H -1.3447 9.0621 -1.8557 0
M  V30 END ATOM
M  V30 BEGIN BOND
M  V30 1 1 1 2
M  V30 2 1 1 3
M  V30 3 1 2 4
M  V30 4 1 2 5
M  V30 5 1 3 6
M  V30 6 1 4 7
M  V30 7 1 4 8
M  V30 8 1 5 9
M  V30 9 1 6 10
M  V30 10 1 7 11
M  V30 11 2 8 12
M  V30 12 1 9 13
M  V30 13 2 10 14
M  V30 14 2 11 15
M  V30 15 1 11 16
M  V30 16 2 13 17
M  V30 17 1 13 18
M  V30 18 1 14 19
M  V30 19 2 18 20
M  V30 20 1 18 21
M  V30 21 1 19 22
M  V30 22 1 20 23
M  V30 23 1 21 24
M  V30 24 2 21 25
M  V30 25 2 22 26
M  V30 26 1 22 27
M  V30 27 1 23 28
M  V30 28 2 24 29
M  V30 29 1 25 30
M  V30 30 1 26 31
M  V30 31 1 27 32
M  V30 32 1 27 33
M  V30 33 1 29 34
M  V30 34 1 31 35
M  V30 35 2 32 36
M  V30 36 1 33 37
M  V30 37 2 35 38
M  V30 38 2 37 39
M  V30 39 1 5 8
M  V30 40 2 6 7
M  V30 41 1 29 30
M  V30 42 1 32 35
M  V30 43 1 2 40
M  V30 44 1 3 41
M  V30 45 1 3 42
M  V30 46 1 5 43
M  V30 47 1 9 44
M  V30 48 1 10 45
M  V30 49 1 14 46
M  V30 50 1 16 47
M  V30 51 1 25 48
M  V30 52 1 28 49
M  V30 53 1 28 50
M  V30 54 1 28 51
M  V30 55 1 31 52
M  V30 56 1 33 53
M  V30 57 1 33 54
M  V30 58 1 34 55
M  V30 59 1 34 56
M  V30 60 1 37 57
M  V30 END BOND
M  V30 BEGIN COLLECTION
M  V30 MDLV30/STEABS ATOMS=(2 2 5)
M  V30 END COLLECTION
M  V30 END CTAB
M  END
>  <level_0>
1945

>  <index>
1945

>  <NO.>
1946

>  <Name>
ceftiolene

>  <SMILES>
CO/N=C(/C(=O)N[C@@H]1C(=O)N2C(C(=O)O)=C(/C=C/Sc3n[nH]c(=O)c(=O)n3CC=O)CS[C@H]12)c1csc(N)n1

>  <logBB>


>  <Class>
-1

>  <MW>
594.04

>  <nHBAcc>
14

>  <nHBDon>
4

>  <SLogP>
-1.44

>  <TopoPSA>
232.03

>  <MMFF94 Energy>
110.78

$$$$
CO/N=C(/C(=O)N[C@@H]1C(=O)N2C(C(=O)O)=C(C)CS[C@H]12)c1csc(N)n1
Actelion Java MolfileCreator 2.0

  0  0  0  0  0  0              0 V3000
M  V30 BEGIN CTAB
M  V30 COUNTS 41 43 0 0 0
M  V30 BEGIN ATOM
M  V30 1 S 0.0823 -1.5655 1.8953 0
M  V30 2 C 1.6508 -1.1101 1.1054 0 CFG=1
M  V30 3 C 0.6392 -3.2558 2.2835 0
M  V30 4 N 1.8482 -1.9896 -0.0184 0
M  V30 5 C 1.6293 0.0663 0.0821 0 CFG=1
M  V30 6 C 1.286 -3.9781 1.1159 0
M  V30 7 C 1.8049 -3.3447 0.0384 0
M  V30 8 C 1.9989 -1.0446 -0.9694 0
M  V30 9 N 0.3265 0.7428 -0.1373 0
M  V30 10 C 1.2681 -5.479 1.276 0
M  V30 11 C 2.3001 -4.102 -1.1435 0
M  V30 12 O 2.229 -1.1118 -2.1529 0
M  V30 13 C 0.2323 1.9685 -0.761 0
M  V30 14 O 1.7136 -4.9872 -1.7392 0
M  V30 15 O 3.548 -3.7197 -1.471 0
M  V30 16 O 1.1788 2.6221 -1.1719 0
M  V30 17 C -1.2019 2.4653 -0.9352 0
M  V30 18 N -2.0276 1.6119 -1.4806 0
M  V30 19 C -1.542 3.8011 -0.4549 0
M  V30 20 O -3.3513 2.069 -1.5316 0
M  V30 21 N -0.9547 4.2957 0.7103 0
M  V30 22 C -2.4025 4.6932 -1.0697 0
M  V30 23 C -4.1503 1.0688 -2.1541 0
M  V30 24 C -1.3735 5.511 0.958 0
M  V30 25 S -2.4919 6.1491 -0.1737 0
M  V30 26 N -0.9683 6.2221 2.0139 0
M  V30 27 H 2.5108 -1.0813 1.7851 0
M  V30 28 H -0.2507 -3.8038 2.6111 0
M  V30 29 H 1.3376 -3.22 3.1267 0
M  V30 30 H 2.4407 0.7851 0.2472 0
M  V30 31 H -0.544 0.2758 0.1068 0
M  V30 32 H 1.6051 -5.7512 2.2826 0
M  V30 33 H 1.9297 -6.0006 0.5799 0
M  V30 34 H 0.2513 -5.8609 1.1387 0
M  V30 35 H 3.7334 -4.1985 -2.3045 0
M  V30 36 H -2.9636 4.5665 -1.9844 0
M  V30 37 H -4.118 0.1425 -1.5723 0
M  V30 38 H -3.8009 0.8868 -3.175 0
M  V30 39 H -5.1828 1.426 -2.1925 0
M  V30 40 H -1.2896 7.1647 2.1846 0
M  V30 41 H -0.2915 5.8287 2.6543 0
M  V30 END ATOM
M  V30 BEGIN BOND
M  V30 1 1 1 2
M  V30 2 1 1 3
M  V30 3 1 2 4
M  V30 4 1 2 5
M  V30 5 1 3 6
M  V30 6 1 4 7
M  V30 7 1 4 8
M  V30 8 1 5 9
M  V30 9 1 6 10
M  V30 10 1 7 11
M  V30 11 2 8 12
M  V30 12 1 9 13
M  V30 13 2 11 14
M  V30 14 1 11 15
M  V30 15 2 13 16
M  V30 16 1 13 17
M  V30 17 2 17 18
M  V30 18 1 17 19
M  V30 19 1 18 20
M  V30 20 1 19 21
M  V30 21 2 19 22
M  V30 22 1 20 23
M  V30 23 2 21 24
M  V30 24 1 22 25
M  V30 25 1 24 26
M  V30 26 1 5 8
M  V30 27 2 6 7
M  V30 28 1 24 25
M  V30 29 1 2 27
M  V30 30 1 3 28
M  V30 31 1 3 29
M  V30 32 1 5 30
M  V30 33 1 9 31
M  V30 34 1 10 32
M  V30 35 1 10 33
M  V30 36 1 10 34
M  V30 37 1 15 35
M  V30 38 1 22 36
M  V30 39 1 23 37
M  V30 40 1 23 38
M  V30 41 1 23 39
M  V30 42 1 26 40
M  V30 43 1 26 41
M  V30 END BOND
M  V30 BEGIN COLLECTION
M  V30 MDLV30/STEABS ATOMS=(2 2 5)
M  V30 END COLLECTION
M  V30 END CTAB
M  END
>  <level_0>
1946

>  <index>
1946

>  <NO.>
1947

>  <Name>
cefetamet

>  <SMILES>
CO/N=C(/C(=O)N[C@@H]1C(=O)N2C(C(=O)O)=C(C)CS[C@H]12)c1csc(N)n1

>  <logBB>


>  <Class>
-1

>  <MW>
397.05

>  <nHBAcc>
9

>  <nHBDon>
3

>  <SLogP>
-0.17

>  <TopoPSA>
147.21

>  <MMFF94 Energy>
46.653

$$$$
CO/N=C(/C(=O)N[C@@H]1C(=O)N2C(C(=O)O)=C(COC(C)=O)CS[C@H]12)c1ccco1
Actelion Java MolfileCreator 2.0

  0  0  0  0  0  0              0 V3000
M  V30 BEGIN CTAB
M  V30 COUNTS 46 48 0 0 0
M  V30 BEGIN ATOM
M  V30 1 S 1.4668 0.7332 -0.8147 0
M  V30 2 C 1.2906 -1.0383 -0.4693 0 CFG=1
M  V30 3 C 2.74 0.9675 0.4689 0
M  V30 4 N 0.8507 -1.1773 0.8957 0
M  V30 5 C -0.0447 -1.7252 -0.8883 0 CFG=1
M  V30 6 C 2.3771 0.3689 1.8161 0
M  V30 7 C 1.453 -0.6079 1.9706 0
M  V30 8 C -0.2581 -1.9081 0.6595 0
M  V30 9 N -1.057 -0.8805 -1.5678 0
M  V30 10 C 3.1289 1.0037 2.9676 0
M  V30 11 C 1.022 -1.0598 3.3203 0
M  V30 12 O -1.0906 -2.3852 1.3928 0
M  V30 13 C -2.2029 -1.4098 -2.1231 0
M  V30 14 O 4.5311 0.8956 2.6793 0
M  V30 15 O 0.6657 -0.3466 4.2402 0
M  V30 16 O 1.1214 -2.3952 3.4376 0
M  V30 17 O -2.4516 -2.6036 -2.182 0
M  V30 18 C -3.1524 -0.3479 -2.6974 0
M  V30 19 C 5.3304 1.5166 3.5896 0
M  V30 20 N -2.5564 0.662 -3.2735 0
M  V30 21 C -4.5675 -0.5874 -2.4895 0
M  V30 22 O 4.9406 2.1383 4.5666 0
M  V30 23 C 6.7696 1.3336 3.2179 0
M  V30 24 O -3.4511 1.6327 -3.738 0
M  V30 25 O -5.4951 0.2105 -3.1118 0
M  V30 26 C -5.2471 -1.5307 -1.732 0
M  V30 27 C -2.7165 2.6524 -4.4016 0
M  V30 28 C -6.7286 -0.2204 -2.7529 0
M  V30 29 C -6.6325 -1.2924 -1.9026 0
M  V30 30 H 2.1799 -1.6376 -0.6972 0
M  V30 31 H 3.684 0.5403 0.1138 0
M  V30 32 H 2.8781 2.0497 0.5663 0
M  V30 33 H 0.1125 -2.6739 -1.4148 0
M  V30 34 H -0.929 0.1274 -1.6493 0
M  V30 35 H 2.8423 2.0596 3.0469 0
M  V30 36 H 2.9448 0.5102 3.9251 0
M  V30 37 H 0.7316 -2.5914 4.3145 0
M  V30 38 H 7.0166 0.2691 3.2057 0
M  V30 39 H 6.96 1.7847 2.241 0
M  V30 40 H 7.4015 1.8291 3.9606 0
M  V30 41 H -4.798 -2.307 -1.1256 0
M  V30 42 H -2.1788 2.2354 -5.2584 0
M  V30 43 H -2.0135 3.125 -3.7087 0
M  V30 44 H -3.4199 3.4083 -4.7604 0
M  V30 45 H -7.5571 0.3283 -3.1786 0
M  V30 46 H -7.4557 -1.8367 -1.4617 0
M  V30 END ATOM
M  V30 BEGIN BOND
M  V30 1 1 1 2
M  V30 2 1 1 3
M  V30 3 1 2 4
M  V30 4 1 2 5
M  V30 5 1 3 6
M  V30 6 1 4 7
M  V30 7 1 4 8
M  V30 8 1 5 9
M  V30 9 1 6 10
M  V30 10 1 7 11
M  V30 11 2 8 12
M  V30 12 1 9 13
M  V30 13 1 10 14
M  V30 14 2 11 15
M  V30 15 1 11 16
M  V30 16 2 13 17
M  V30 17 1 13 18
M  V30 18 1 14 19
M  V30 19 2 18 20
M  V30 20 1 18 21
M  V30 21 2 19 22
M  V30 22 1 19 23
M  V30 23 1 20 24
M  V30 24 1 21 25
M  V30 25 2 21 26
M  V30 26 1 24 27
M  V30 27 1 25 28
M  V30 28 1 26 29
M  V30 29 1 5 8
M  V30 30 2 6 7
M  V30 31 2 28 29
M  V30 32 1 2 30
M  V30 33 1 3 31
M  V30 34 1 3 32
M  V30 35 1 5 33
M  V30 36 1 9 34
M  V30 37 1 10 35
M  V30 38 1 10 36
M  V30 39 1 16 37
M  V30 40 1 23 38
M  V30 41 1 23 39
M  V30 42 1 23 40
M  V30 43 1 26 41
M  V30 44 1 27 42
M  V30 45 1 27 43
M  V30 46 1 27 44
M  V30 47 1 28 45
M  V30 48 1 29 46
M  V30 END BOND
M  V30 BEGIN COLLECTION
M  V30 MDLV30/STEABS ATOMS=(2 2 5)
M  V30 END COLLECTION
M  V30 END CTAB
M  END
>  <level_0>
1947

>  <index>
1947

>  <NO.>
1948

>  <Name>
39685-31-9

>  <SMILES>
CO/N=C(/C(=O)N[C@@H]1C(=O)N2C(C(=O)O)=C(COC(C)=O)CS[C@H]12)c1ccco1

>  <logBB>


>  <Class>
-1

>  <MW>
423.07

>  <nHBAcc>
9

>  <nHBDon>
2

>  <SLogP>
-0.07

>  <TopoPSA>
147.74

>  <MMFF94 Energy>
54.128

$$$$
CO/N=C(/C(=O)N[C@@H]1C(=O)N2C(C(=O)O)=C(COC(C)=O)C[S+]([O-])[C@H]12)c1csc(N)n1
Actelion Java MolfileCreator 2.0

  0  0  0  0  0  0              0 V3000
M  V30 BEGIN CTAB
M  V30 COUNTS 48 50 0 0 0
M  V30 BEGIN ATOM
M  V30 1 S 0.9071 -1.2371 -1.2371 0
M  V30 2 O 0.3721 -1.9546 -2.4405 0
M  V30 3 C -0.217 -1.7235 0.1652 0 CFG=1
M  V30 4 C 2.2608 -2.2493 -0.5337 0
M  V30 5 N 0.3649 -1.2459 1.3988 0
M  V30 6 C -1.4828 -0.893 0.5305 0 CFG=1
M  V30 7 C 2.5704 -1.949 0.9219 0
M  V30 8 C 1.6543 -1.4408 1.779 0
M  V30 9 C -0.6903 -0.5308 1.8388 0
M  V30 10 N -1.8345 0.2431 -0.3515 0
M  V30 11 C 4.0037 -2.2554 1.3013 0
M  V30 12 C 2.0336 -1.0381 3.1612 0
M  V30 13 O -0.8447 0.1578 2.8179 0
M  V30 14 C -2.9116 1.0683 -0.0858 0
M  V30 15 O 4.2591 -3.621 0.9417 0
M  V30 16 O 2.9661 -0.3188 3.4676 0
M  V30 17 O 1.2328 -1.6186 4.0704 0
M  V30 18 O -3.6827 0.9054 0.8455 0
M  V30 19 C -3.0719 2.2183 -1.1025 0
M  V30 20 C 5.5514 -4.0069 1.128 0
M  V30 21 N -2.3243 2.0944 -2.171 0
M  V30 22 C -3.9872 3.3352 -0.8385 0
M  V30 23 O 6.4501 -3.2899 1.5416 0
M  V30 24 C 5.7185 -5.4453 0.7455 0
M  V30 25 O -2.5414 3.1085 -3.1125 0
M  V30 26 N -3.6973 4.6413 -1.2452 0
M  V30 27 C -5.1845 3.23 -0.1505 0
M  V30 28 C -1.6478 2.9234 -4.2017 0
M  V30 29 C -4.6497 5.4655 -0.8934 0
M  V30 30 S -5.9541 4.7563 -0.0396 0
M  V30 31 N -4.6231 6.7725 -1.1681 0
M  V30 32 H -0.4119 -2.8036 0.184 0
M  V30 33 H 2.0049 -3.3072 -0.657 0
M  V30 34 H 3.1315 -2.0328 -1.162 0
M  V30 35 H -2.3594 -1.5221 0.729 0
M  V30 36 H -1.3286 0.4641 -1.2086 0
M  V30 37 H 4.6736 -1.5882 0.7452 0
M  V30 38 H 4.1974 -2.1479 2.3716 0
M  V30 39 H 1.4995 -1.2194 4.9244 0
M  V30 40 H 5.0743 -6.0715 1.3679 0
M  V30 41 H 5.4785 -5.5774 -0.3123 0
M  V30 42 H 6.7577 -5.7451 0.9081 0
M  V30 43 H -5.6457 2.3533 0.2822 0
M  V30 44 H -1.8302 1.9568 -4.6812 0
M  V30 45 H -0.6114 2.9829 -3.8555 0
M  V30 46 H -1.8222 3.7181 -4.9318 0
M  V30 47 H -5.3633 7.3998 -0.8877 0
M  V30 48 H -3.8377 7.1583 -1.6755 0
M  V30 END ATOM
M  V30 BEGIN BOND
M  V30 1 2 1 2
M  V30 2 1 1 3
M  V30 3 1 1 4
M  V30 4 1 3 5
M  V30 5 1 3 6
M  V30 6 1 4 7
M  V30 7 1 5 8
M  V30 8 1 5 9
M  V30 9 1 6 10
M  V30 10 1 7 11
M  V30 11 1 8 12
M  V30 12 2 9 13
M  V30 13 1 10 14
M  V30 14 1 11 15
M  V30 15 2 12 16
M  V30 16 1 12 17
M  V30 17 2 14 18
M  V30 18 1 14 19
M  V30 19 1 15 20
M  V30 20 2 19 21
M  V30 21 1 19 22
M  V30 22 2 20 23
M  V30 23 1 20 24
M  V30 24 1 21 25
M  V30 25 1 22 26
M  V30 26 2 22 27
M  V30 27 1 25 28
M  V30 28 2 26 29
M  V30 29 1 27 30
M  V30 30 1 29 31
M  V30 31 1 6 9
M  V30 32 2 7 8
M  V30 33 1 29 30
M  V30 34 1 3 32
M  V30 35 1 4 33
M  V30 36 1 4 34
M  V30 37 1 6 35
M  V30 38 1 10 36
M  V30 39 1 11 37
M  V30 40 1 11 38
M  V30 41 1 17 39
M  V30 42 1 24 40
M  V30 43 1 24 41
M  V30 44 1 24 42
M  V30 45 1 27 43
M  V30 46 1 28 44
M  V30 47 1 28 45
M  V30 48 1 28 46
M  V30 49 1 31 47
M  V30 50 1 31 48
M  V30 END BOND
M  V30 BEGIN COLLECTION
M  V30 MDLV30/STEABS ATOMS=(2 3 6)
M  V30 END COLLECTION
M  V30 END CTAB
M  END
>  <level_0>
1948

>  <index>
1948

>  <NO.>
1949

>  <Name>
ceftioxide

>  <SMILES>
CO/N=C(/C(=O)N[C@@H]1C(=O)N2C(C(=O)O)=C(COC(C)=O)C[S+]([O-])[C@H]12)c1csc(N)n1

>  <logBB>


>  <Class>
-1

>  <MW>
471.05

>  <nHBAcc>
11

>  <nHBDon>
3

>  <SLogP>
-1.61

>  <TopoPSA>
196.57

>  <MMFF94 Energy>
35.555

$$$$
CO/N=C(/C(=O)N[C@@H]1C(=O)N2C(C(=O)O)=C(COC(N)=O)CS[C@H]12)c1ccco1
Actelion Java MolfileCreator 2.0

  0  0  0  0  0  0              0 V3000
M  V30 BEGIN CTAB
M  V30 COUNTS 45 47 0 0 0
M  V30 BEGIN ATOM
M  V30 1 S 1.0572 0.8132 -0.1626 0
M  V30 2 C 1.1582 -0.9826 0.0681 0 CFG=1
M  V30 3 C 2.3393 1.1555 1.0853 0
M  V30 4 N 0.794 -1.2582 1.4379 0
M  V30 5 C -0.0627 -1.8618 -0.3456 0 CFG=1
M  V30 6 C 2.1162 0.4401 2.4057 0
M  V30 7 C 1.3436 -0.6641 2.5285 0
M  V30 8 C -0.2266 -2.102 1.1907 0
M  V30 9 N -1.2047 -1.2003 -1.0182 0
M  V30 10 C 2.8138 1.1147 3.5689 0
M  V30 11 C 1.0226 -1.2409 3.8616 0
M  V30 12 O -0.9929 -2.7005 1.9077 0
M  V30 13 C -1.1953 -0.9285 -2.3717 0
M  V30 14 O 4.2043 1.229 3.2322 0
M  V30 15 O 0.6201 -0.6313 4.8353 0
M  V30 16 O 1.2796 -2.5605 3.894 0
M  V30 17 O -0.2731 -1.2348 -3.112 0
M  V30 18 C -2.4574 -0.1867 -2.8593 0
M  V30 19 C 4.9274 1.9178 4.1424 0
M  V30 20 N -3.1384 0.4088 -1.9147 0
M  V30 21 C -2.7456 -0.2594 -4.2795 0
M  V30 22 O 4.5049 2.4303 5.1648 0
M  V30 23 N 6.2218 1.9698 3.76 0
M  V30 24 O -4.3069 1.0206 -2.3834 0
M  V30 25 O -3.6423 0.6208 -4.8345 0
M  V30 26 C -2.2699 -1.0832 -5.2896 0
M  V30 27 C -4.9242 1.7142 -1.3069 0
M  V30 28 C -3.7312 0.3528 -6.1594 0
M  V30 29 C -2.9047 -0.6896 -6.493 0
M  V30 30 H 2.1219 -1.4218 -0.2157 0
M  V30 31 H 3.3179 0.8844 0.6746 0
M  V30 32 H 2.3306 2.2396 1.2416 0
M  V30 33 H 0.2201 -2.7833 -0.8702 0
M  V30 34 H -2.0012 -0.841 -0.4937 0
M  V30 35 H 2.3795 2.1109 3.7202 0
M  V30 36 H 2.7406 0.5472 4.5001 0
M  V30 37 H 0.9612 -2.8452 4.7755 0
M  V30 38 H 6.8844 2.4542 4.3472 0
M  V30 39 H 6.5212 1.524 2.9075 0
M  V30 40 H -1.5454 -1.8788 -5.1772 0
M  V30 41 H -4.254 2.4888 -0.9214 0
M  V30 42 H -5.1907 1.0146 -0.5086 0
M  V30 43 H -5.8359 2.1895 -1.6784 0
M  V30 44 H -4.4117 0.9804 -6.718 0
M  V30 45 H -2.7726 -1.1123 -7.4789 0
M  V30 END ATOM
M  V30 BEGIN BOND
M  V30 1 1 1 2
M  V30 2 1 1 3
M  V30 3 1 2 4
M  V30 4 1 2 5
M  V30 5 1 3 6
M  V30 6 1 4 7
M  V30 7 1 4 8
M  V30 8 1 5 9
M  V30 9 1 6 10
M  V30 10 1 7 11
M  V30 11 2 8 12
M  V30 12 1 9 13
M  V30 13 1 10 14
M  V30 14 2 11 15
M  V30 15 1 11 16
M  V30 16 2 13 17
M  V30 17 1 13 18
M  V30 18 1 14 19
M  V30 19 2 18 20
M  V30 20 1 18 21
M  V30 21 2 19 22
M  V30 22 1 19 23
M  V30 23 1 20 24
M  V30 24 1 21 25
M  V30 25 2 21 26
M  V30 26 1 24 27
M  V30 27 1 25 28
M  V30 28 1 26 29
M  V30 29 1 5 8
M  V30 30 2 6 7
M  V30 31 2 28 29
M  V30 32 1 2 30
M  V30 33 1 3 31
M  V30 34 1 3 32
M  V30 35 1 5 33
M  V30 36 1 9 34
M  V30 37 1 10 35
M  V30 38 1 10 36
M  V30 39 1 16 37
M  V30 40 1 23 38
M  V30 41 1 23 39
M  V30 42 1 26 40
M  V30 43 1 27 41
M  V30 44 1 27 42
M  V30 45 1 27 43
M  V30 46 1 28 44
M  V30 47 1 29 45
M  V30 END BOND
M  V30 BEGIN COLLECTION
M  V30 MDLV30/STEABS ATOMS=(2 2 5)
M  V30 END COLLECTION
M  V30 END CTAB
M  END
>  <level_0>
1949

>  <index>
1949

>  <NO.>
1950

>  <Name>
cefuroxime

>  <SMILES>
CO/N=C(/C(=O)N[C@@H]1C(=O)N2C(C(=O)O)=C(COC(N)=O)CS[C@H]12)c1ccco1

>  <logBB>


>  <Class>
1

>  <MW>
424.07

>  <nHBAcc>
9

>  <nHBDon>
3

>  <SLogP>
-0.54

>  <TopoPSA>
173.76

>  <MMFF94 Energy>
-8.8212

$$$$
CO/N=C(/C(=O)N[C@@H]1C(=O)N2C(C(=O)O)=C(CSC(=O)c3ccco3)CS[C@H]12)c1csc(N)n1
Actelion Java MolfileCreator 2.0

  0  0  0  0  0  0              0 V3000
M  V30 BEGIN CTAB
M  V30 COUNTS 51 54 0 0 0
M  V30 BEGIN ATOM
M  V30 1 S -0.5831 -0.5831 -0.4997 0
M  V30 2 C 0.4101 0.8519 -0.0103 0 CFG=1
M  V30 3 C -2.1085 0.0951 0.2324 0
M  V30 4 N 0.3856 0.9079 1.4321 0
M  V30 5 C 1.9576 0.6943 0.1052 0 CFG=1
M  V30 6 C -1.9393 0.5634 1.6699 0
M  V30 7 C -0.735 0.89 2.1994 0
M  V30 8 C 1.7155 0.861 1.6405 0
M  V30 9 N 2.5652 -0.5902 -0.3153 0
M  V30 10 C -3.234 0.5743 2.4586 0
M  V30 11 C -0.5779 1.2328 3.6401 0
M  V30 12 O 2.3914 0.8518 2.6419 0
M  V30 13 C 2.8318 -0.8536 -1.6431 0
M  V30 14 S -4.0005 2.2154 2.3907 0
M  V30 15 O -0.9701 0.5828 4.5915 0
M  V30 16 O 0.0465 2.4154 3.7871 0
M  V30 17 O 2.5931 -0.0848 -2.5628 0
M  V30 18 C 3.4282 -2.2374 -1.8976 0
M  V30 19 C -5.1494 1.9866 1.0754 0
M  V30 20 N 2.8105 -3.2291 -1.3121 0
M  V30 21 C 4.6303 -2.3406 -2.7187 0
M  V30 22 O -5.0742 1.0147 0.3314 0
M  V30 23 C -6.1477 3.0271 0.9479 0
M  V30 24 O 3.4437 -4.466 -1.4905 0
M  V30 25 N 5.61 -1.3501 -2.65 0
M  V30 26 C 4.913 -3.344 -3.6282 0
M  V30 27 O -6.1817 4.0934 1.8103 0
M  V30 28 C -7.1765 3.1619 0.0301 0
M  V30 29 C 2.6849 -5.4629 -0.8152 0
M  V30 30 C 6.5941 -1.6156 -3.4706 0
M  V30 31 S 6.4221 -3.0565 -4.3831 0
M  V30 32 C -7.2173 4.8875 1.439 0
M  V30 33 C -7.8622 4.3586 0.3478 0
M  V30 34 N 7.6662 -0.8301 -3.6028 0
M  V30 35 H 0.1072 1.7947 -0.4812 0
M  V30 36 H -2.8474 -0.7106 0.18 0
M  V30 37 H -2.4633 0.9227 -0.3902 0
M  V30 38 H 2.515 1.5442 -0.309 0
M  V30 39 H 2.7344 -1.3388 0.3504 0
M  V30 40 H -3.9183 -0.2108 2.12 0
M  V30 41 H -3.0673 0.3428 3.5127 0
M  V30 42 H 0.1602 2.5078 4.755 0
M  V30 43 H 4.3173 -4.2079 -3.8852 0
M  V30 44 H -7.3964 2.4694 -0.7717 0
M  V30 45 H 1.676 -5.5195 -1.235 0
M  V30 46 H 2.637 -5.2415 0.2553 0
M  V30 47 H 3.18 -6.4272 -0.9547 0
M  V30 48 H -7.3635 5.7756 2.0388 0
M  V30 49 H -8.7199 4.7833 -0.1551 0
M  V30 50 H 8.415 -1.042 -4.2467 0
M  V30 51 H 7.7333 0.0217 -3.0615 0
M  V30 END ATOM
M  V30 BEGIN BOND
M  V30 1 1 1 2
M  V30 2 1 1 3
M  V30 3 1 2 4
M  V30 4 1 2 5
M  V30 5 1 3 6
M  V30 6 1 4 7
M  V30 7 1 4 8
M  V30 8 1 5 9
M  V30 9 1 6 10
M  V30 10 1 7 11
M  V30 11 2 8 12
M  V30 12 1 9 13
M  V30 13 1 10 14
M  V30 14 2 11 15
M  V30 15 1 11 16
M  V30 16 2 13 17
M  V30 17 1 13 18
M  V30 18 1 14 19
M  V30 19 2 18 20
M  V30 20 1 18 21
M  V30 21 2 19 22
M  V30 22 1 19 23
M  V30 23 1 20 24
M  V30 24 1 21 25
M  V30 25 2 21 26
M  V30 26 1 23 27
M  V30 27 2 23 28
M  V30 28 1 24 29
M  V30 29 2 25 30
M  V30 30 1 26 31
M  V30 31 1 27 32
M  V30 32 1 28 33
M  V30 33 1 30 34
M  V30 34 1 5 8
M  V30 35 2 6 7
M  V30 36 1 30 31
M  V30 37 2 32 33
M  V30 38 1 2 35
M  V30 39 1 3 36
M  V30 40 1 3 37
M  V30 41 1 5 38
M  V30 42 1 9 39
M  V30 43 1 10 40
M  V30 44 1 10 41
M  V30 45 1 16 42
M  V30 46 1 26 43
M  V30 47 1 28 44
M  V30 48 1 29 45
M  V30 49 1 29 46
M  V30 50 1 29 47
M  V30 51 1 32 48
M  V30 52 1 33 49
M  V30 53 1 34 50
M  V30 54 1 34 51
M  V30 END BOND
M  V30 BEGIN COLLECTION
M  V30 MDLV30/STEABS ATOMS=(2 2 5)
M  V30 END COLLECTION
M  V30 END CTAB
M  END
>  <level_0>
1950

>  <index>
1950

>  <NO.>
1951

>  <Name>
ceftiofur

>  <SMILES>
CO/N=C(/C(=O)N[C@@H]1C(=O)N2C(C(=O)O)=C(CSC(=O)c3ccco3)CS[C@H]12)c1csc(N)n1

>  <logBB>


>  <Class>
-1

>  <MW>
523.03

>  <nHBAcc>
12

>  <nHBDon>
3

>  <SLogP>
0.98

>  <TopoPSA>
177.42

>  <MMFF94 Energy>
52.039

$$$$
CO/N=C(/C(=O)N[C@@H]1C(=O)N2C(C(=O)O)=C(CSc3cnns3)CS[C@H]12)c1csc(N)n1
Actelion Java MolfileCreator 2.0

  0  0  0  0  0  0              0 V3000
M  V30 BEGIN CTAB
M  V30 COUNTS 47 50 0 0 0
M  V30 BEGIN ATOM
M  V30 1 S -1.3548 -0.0846 0.0 0
M  V30 2 C -0.4672 1.4965 -0.0071 0 CFG=1
M  V30 3 C -2.7266 0.566 1.0028 0
M  V30 4 N -0.1497 1.8083 1.3665 0
M  V30 5 C 1.0705 1.4945 -0.275 0 CFG=1
M  V30 6 C -2.2791 1.304 2.2549 0
M  V30 7 C -1.0332 1.8189 2.3959 0
M  V30 8 C 1.186 1.9117 1.228 0
M  V30 9 N 1.7156 0.2116 -0.6353 0
M  V30 10 C -3.3393 1.3466 3.3389 0
M  V30 11 C -0.5654 2.4332 3.6659 0
M  V30 12 O 2.0767 2.1341 2.0124 0
M  V30 13 C 1.6563 -0.3017 -1.9146 0
M  V30 14 S -3.902 3.0343 3.72 0
M  V30 15 O -0.192 3.5843 3.7988 0
M  V30 16 O -0.579 1.5585 4.6858 0
M  V30 17 O 1.1129 0.27 -2.8473 0
M  V30 18 C 2.346 -1.6723 -2.0701 0
M  V30 19 C -4.478 3.5751 2.1666 0
M  V30 20 N 3.0768 -2.0311 -1.0443 0
M  V30 21 C 2.1564 -2.4711 -3.2867 0
M  V30 22 S -5.9279 3.0564 1.4128 0
M  V30 23 C -3.8903 4.4943 1.3191 0
M  V30 24 O 3.749 -3.2429 -1.2499 0
M  V30 25 N 2.0646 -3.8657 -3.2498 0
M  V30 26 C 2.0193 -1.9466 -4.5608 0
M  V30 27 N -5.6588 3.9822 0.0438 0
M  V30 28 N -4.5521 4.7033 0.1196 0
M  V30 29 C 4.4354 -3.5957 -0.057 0
M  V30 30 C 1.8905 -4.3562 -4.4493 0
M  V30 31 S 1.804 -3.1989 -5.709 0
M  V30 32 N 1.7813 -5.6647 -4.6943 0
M  V30 33 H -0.9943 2.3099 -0.5199 0
M  V30 34 H -3.3334 -0.3033 1.2762 0
M  V30 35 H -3.3437 1.2227 0.3818 0
M  V30 36 H 1.3986 2.2991 -0.9451 0
M  V30 37 H 2.2172 -0.3506 0.0509 0
M  V30 38 H -4.2187 0.7593 3.0521 0
M  V30 39 H -2.9682 0.8815 4.2575 0
M  V30 40 H -0.1818 2.0665 5.4247 0
M  V30 41 H -2.9718 5.0332 1.5119 0
M  V30 42 H 2.0397 -0.9127 -4.8757 0
M  V30 43 H 3.7246 -3.7249 0.7649 0
M  V30 44 H 5.1712 -2.827 0.1981 0
M  V30 45 H 4.9568 -4.5416 -0.2242 0
M  V30 46 H 1.6481 -6.0319 -5.6255 0
M  V30 47 H 1.8422 -6.3209 -3.927 0
M  V30 END ATOM
M  V30 BEGIN BOND
M  V30 1 1 1 2
M  V30 2 1 1 3
M  V30 3 1 2 4
M  V30 4 1 2 5
M  V30 5 1 3 6
M  V30 6 1 4 7
M  V30 7 1 4 8
M  V30 8 1 5 9
M  V30 9 1 6 10
M  V30 10 1 7 11
M  V30 11 2 8 12
M  V30 12 1 9 13
M  V30 13 1 10 14
M  V30 14 2 11 15
M  V30 15 1 11 16
M  V30 16 2 13 17
M  V30 17 1 13 18
M  V30 18 1 14 19
M  V30 19 2 18 20
M  V30 20 1 18 21
M  V30 21 1 19 22
M  V30 22 2 19 23
M  V30 23 1 20 24
M  V30 24 1 21 25
M  V30 25 2 21 26
M  V30 26 1 22 27
M  V30 27 1 23 28
M  V30 28 1 24 29
M  V30 29 2 25 30
M  V30 30 1 26 31
M  V30 31 1 30 32
M  V30 32 1 5 8
M  V30 33 2 6 7
M  V30 34 2 27 28
M  V30 35 1 30 31
M  V30 36 1 2 33
M  V30 37 1 3 34
M  V30 38 1 3 35
M  V30 39 1 5 36
M  V30 40 1 9 37
M  V30 41 1 10 38
M  V30 42 1 10 39
M  V30 43 1 16 40
M  V30 44 1 23 41
M  V30 45 1 26 42
M  V30 46 1 29 43
M  V30 47 1 29 44
M  V30 48 1 29 45
M  V30 49 1 32 46
M  V30 50 1 32 47
M  V30 END BOND
M  V30 BEGIN COLLECTION
M  V30 MDLV30/STEABS ATOMS=(2 2 5)
M  V30 END COLLECTION
M  V30 END CTAB
M  END
>  <level_0>
1951

>  <index>
1951

>  <NO.>
1952

>  <Name>
cefuzonam

>  <SMILES>
CO/N=C(/C(=O)N[C@@H]1C(=O)N2C(C(=O)O)=C(CSc3cnns3)CS[C@H]12)c1csc(N)n1

>  <logBB>


>  <Class>
-1

>  <MW>
513.0

>  <nHBAcc>
13

>  <nHBDon>
3

>  <SLogP>
0.46

>  <TopoPSA>
172.99

>  <MMFF94 Energy>
47.453

$$$$
CO/N=C(/C(=O)N[C@@H]1C(=O)N2C(C(=O)O)=C(CSc3nc(=O)c(=O)[nH]n3C)CS[C@H]12)c1csc(N)n1
Actelion Java MolfileCreator 2.0

  0  0  0  0  0  0              0 V3000
M  V30 BEGIN CTAB
M  V30 COUNTS 54 57 0 0 0
M  V30 BEGIN ATOM
M  V30 1 S -0.4153 -0.8308 -0.7477 0
M  V30 2 C 0.0834 0.7676 -0.0547 0 CFG=1
M  V30 3 C -2.1712 -0.5845 -0.3219 0
M  V30 4 N -0.2284 0.7359 1.3548 0
M  V30 5 C 1.5727 0.9732 0.3645 0 CFG=1
M  V30 6 C -2.394 -0.1834 1.1299 0
M  V30 7 C -1.4238 0.381 1.8892 0
M  V30 8 C 1.0067 0.999 1.8227 0
M  V30 9 N 2.537 -0.1107 0.0697 0
M  V30 10 C -3.7734 -0.556 1.642 0
M  V30 11 C -1.6028 0.6325 3.3426 0
M  V30 12 O 1.455 1.1014 2.9393 0
M  V30 13 C 3.102 -0.2635 -1.1796 0
M  V30 14 S -4.7148 0.8453 2.3071 0
M  V30 15 O -1.5973 1.7272 3.8775 0
M  V30 16 O -1.7651 -0.5096 4.0313 0
M  V30 17 O 2.8961 0.4978 -2.1124 0
M  V30 18 C 4.0333 -1.4861 -1.2971 0
M  V30 19 C -4.8118 1.9078 0.9015 0
M  V30 20 N 4.4361 -1.971 -0.1493 0
M  V30 21 C 4.3925 -2.0297 -2.6123 0
M  V30 22 N -4.9964 1.3148 -0.2303 0
M  V30 23 N -4.6973 3.2736 1.1204 0
M  V30 24 O 5.3377 -3.0338 -0.2916 0
M  V30 25 N 4.5406 -3.4029 -2.8293 0
M  V30 26 C 4.5838 -1.2714 -3.755 0
M  V30 27 C -5.0419 2.1386 -1.3346 0
M  V30 28 N -5.0679 4.1357 0.0787 0
M  V30 29 C -4.3576 3.9077 2.3872 0
M  V30 30 C 5.6428 -3.5528 0.9952 0
M  V30 31 C 4.8507 -3.6507 -4.0751 0
M  V30 32 S 4.974 -2.2745 -5.0871 0
M  V30 33 O -4.8681 1.6954 -2.4642 0
M  V30 34 C -5.2822 3.6592 -1.1936 0
M  V30 35 N 5.0564 -4.884 -4.545 0
M  V30 36 O -5.6329 4.3723 -2.1203 0
M  V30 37 H -0.3443 1.6373 -0.5677 0
M  V30 38 H -2.6647 -1.5394 -0.5298 0
M  V30 39 H -2.5978 0.1682 -0.991 0
M  V30 40 H 1.9789 1.9495 0.071 0
M  V30 41 H 2.8137 -0.7922 0.7747 0
M  V30 42 H -4.3763 -1.0232 0.8557 0
M  V30 43 H -3.6803 -1.3164 2.4248 0
M  V30 44 H -1.799 -0.2165 4.9657 0
M  V30 45 H 4.5236 -0.1992 -3.8776 0
M  V30 46 H -5.2266 5.1188 0.2704 0
M  V30 47 H -5.1753 3.7933 3.106 0
M  V30 48 H -3.4434 3.4776 2.8063 0
M  V30 49 H -4.1729 4.9806 2.2608 0
M  V30 50 H 4.7346 -3.9264 1.4781 0
M  V30 51 H 6.1086 -2.7803 1.6147 0
M  V30 52 H 6.3457 -4.3814 0.8769 0
M  V30 53 H 5.2927 -5.0631 -5.5102 0
M  V30 54 H 4.9769 -5.6742 -3.9186 0
M  V30 END ATOM
M  V30 BEGIN BOND
M  V30 1 1 1 2
M  V30 2 1 1 3
M  V30 3 1 2 4
M  V30 4 1 2 5
M  V30 5 1 3 6
M  V30 6 1 4 7
M  V30 7 1 4 8
M  V30 8 1 5 9
M  V30 9 1 6 10
M  V30 10 1 7 11
M  V30 11 2 8 12
M  V30 12 1 9 13
M  V30 13 1 10 14
M  V30 14 2 11 15
M  V30 15 1 11 16
M  V30 16 2 13 17
M  V30 17 1 13 18
M  V30 18 1 14 19
M  V30 19 2 18 20
M  V30 20 1 18 21
M  V30 21 2 19 22
M  V30 22 1 19 23
M  V30 23 1 20 24
M  V30 24 1 21 25
M  V30 25 2 21 26
M  V30 26 1 22 27
M  V30 27 1 23 28
M  V30 28 1 23 29
M  V30 29 1 24 30
M  V30 30 2 25 31
M  V30 31 1 26 32
M  V30 32 2 27 33
M  V30 33 1 27 34
M  V30 34 1 31 35
M  V30 35 2 34 36
M  V30 36 1 5 8
M  V30 37 2 6 7
M  V30 38 1 28 34
M  V30 39 1 31 32
M  V30 40 1 2 37
M  V30 41 1 3 38
M  V30 42 1 3 39
M  V30 43 1 5 40
M  V30 44 1 9 41
M  V30 45 1 10 42
M  V30 46 1 10 43
M  V30 47 1 16 44
M  V30 48 1 26 45
M  V30 49 1 28 46
M  V30 50 1 29 47
M  V30 51 1 29 48
M  V30 52 1 29 49
M  V30 53 1 30 50
M  V30 54 1 30 51
M  V30 55 1 30 52
M  V30 56 1 35 53
M  V30 57 1 35 54
M  V30 END BOND
M  V30 BEGIN COLLECTION
M  V30 MDLV30/STEABS ATOMS=(2 2 5)
M  V30 END COLLECTION
M  V30 END CTAB
M  END
>  <level_0>
1952

>  <index>
1952

>  <NO.>
1953

>  <Name>
ceftriaxone

>  <SMILES>
CO/N=C(/C(=O)N[C@@H]1C(=O)N2C(C(=O)O)=C(CSc3nc(=O)c(=O)[nH]n3C)CS[C@H]12)c1csc(N)n1

>  <logBB>


>  <Class>
1

>  <MW>
554.05

>  <nHBAcc>
13

>  <nHBDon>
4

>  <SLogP>
-1.61

>  <TopoPSA>
214.96

>  <MMFF94 Energy>
105.26

$$$$
CO/N=C(/C(=O)N[C@@H]1C(=O)N2C(C(=O)O)=C(CSc3nnnn3C)CS[C@H]12)c1csc(N)n1
Actelion Java MolfileCreator 2.0

  0  0  0  0  0  0              0 V3000
M  V30 BEGIN CTAB
M  V30 COUNTS 50 53 0 0 0
M  V30 BEGIN ATOM
M  V30 1 S -0.2496 0.4993 -1.0822 0
M  V30 2 C 0.6654 1.4982 0.1211 0 CFG=1
M  V30 3 C -1.871 1.1012 -0.5001 0
M  V30 4 N 0.2735 1.0546 1.4398 0
M  V30 5 C 2.1188 1.0859 0.5099 0 CFG=1
M  V30 6 C -2.0491 0.995 1.0052 0
M  V30 7 C -1.0076 0.9395 1.8686 0
M  V30 8 C 1.5111 0.8868 1.943 0
M  V30 9 N 2.6927 -0.1289 -0.1131 0
M  V30 10 C -3.494 0.8718 1.4441 0
M  V30 11 C -1.233 0.6981 3.3156 0
M  V30 12 O 1.9225 0.6262 3.0476 0
M  V30 13 C 3.2138 -0.1138 -1.3901 0
M  V30 14 S -4.2459 2.527 1.5041 0
M  V30 15 O -1.7698 1.4651 4.0937 0
M  V30 16 O -0.8123 -0.5268 3.6701 0
M  V30 17 O 3.2913 0.8904 -2.0819 0
M  V30 18 C 3.6883 -1.4912 -1.8888 0
M  V30 19 C -5.8251 2.1174 2.0639 0
M  V30 20 N 3.928 -2.3564 -0.9361 0
M  V30 21 C 3.8105 -1.7503 -3.3292 0
M  V30 22 N -6.3986 0.9371 2.0291 0
M  V30 23 N -6.6943 3.0082 2.6203 0
M  V30 24 O 4.2694 -3.6253 -1.4194 0
M  V30 25 N 4.7266 -2.6653 -3.8545 0
M  V30 26 C 3.0601 -1.1086 -4.3014 0
M  V30 27 N -7.6487 1.1133 2.5758 0
M  V30 28 N -7.8383 2.376 2.9384 0
M  V30 29 C -6.5308 4.4092 2.8871 0
M  V30 30 C 4.6452 -4.4485 -0.324 0
M  V30 31 C 4.6476 -2.714 -5.1588 0
M  V30 32 S 3.4882 -1.6677 -5.8623 0
M  V30 33 N 5.4109 -3.515 -5.907 0
M  V30 34 H 0.5497 2.5808 -0.0146 0
M  V30 35 H -2.6201 0.4916 -1.0157 0
M  V30 36 H -2.0069 2.1393 -0.8216 0
M  V30 37 H 2.8329 1.9181 0.479 0
M  V30 38 H 2.7265 -1.0211 0.3778 0
M  V30 39 H -4.0461 0.2364 0.7423 0
M  V30 40 H -3.5895 0.3974 2.4257 0
M  V30 41 H -0.9299 -0.5594 4.6416 0
M  V30 42 H 2.294 -0.3553 -4.1799 0
M  V30 43 H -7.4367 4.8015 3.3571 0
M  V30 44 H -5.6825 4.5415 3.5632 0
M  V30 45 H -6.3559 4.9283 1.9416 0
M  V30 46 H 3.8101 -4.553 0.3754 0
M  V30 47 H 5.5148 -4.0246 0.1875 0
M  V30 48 H 4.9093 -5.4371 -0.7082 0
M  V30 49 H 5.3424 -3.5434 -6.9141 0
M  V30 50 H 6.0839 -4.1216 -5.4571 0
M  V30 END ATOM
M  V30 BEGIN BOND
M  V30 1 1 1 2
M  V30 2 1 1 3
M  V30 3 1 2 4
M  V30 4 1 2 5
M  V30 5 1 3 6
M  V30 6 1 4 7
M  V30 7 1 4 8
M  V30 8 1 5 9
M  V30 9 1 6 10
M  V30 10 1 7 11
M  V30 11 2 8 12
M  V30 12 1 9 13
M  V30 13 1 10 14
M  V30 14 2 11 15
M  V30 15 1 11 16
M  V30 16 2 13 17
M  V30 17 1 13 18
M  V30 18 1 14 19
M  V30 19 2 18 20
M  V30 20 1 18 21
M  V30 21 2 19 22
M  V30 22 1 19 23
M  V30 23 1 20 24
M  V30 24 1 21 25
M  V30 25 2 21 26
M  V30 26 1 22 27
M  V30 27 1 23 28
M  V30 28 1 23 29
M  V30 29 1 24 30
M  V30 30 2 25 31
M  V30 31 1 26 32
M  V30 32 1 31 33
M  V30 33 1 5 8
M  V30 34 2 6 7
M  V30 35 2 27 28
M  V30 36 1 31 32
M  V30 37 1 2 34
M  V30 38 1 3 35
M  V30 39 1 3 36
M  V30 40 1 5 37
M  V30 41 1 9 38
M  V30 42 1 10 39
M  V30 43 1 10 40
M  V30 44 1 16 41
M  V30 45 1 26 42
M  V30 46 1 29 43
M  V30 47 1 29 44
M  V30 48 1 29 45
M  V30 49 1 30 46
M  V30 50 1 30 47
M  V30 51 1 30 48
M  V30 52 1 33 49
M  V30 53 1 33 50
M  V30 END BOND
M  V30 BEGIN COLLECTION
M  V30 MDLV30/STEABS ATOMS=(2 2 5)
M  V30 END COLLECTION
M  V30 END CTAB
M  END
>  <level_0>
1953

>  <index>
1953

>  <NO.>
1954

>  <Name>
cefmenoxime

>  <SMILES>
CO/N=C(/C(=O)N[C@@H]1C(=O)N2C(C(=O)O)=C(CSc3nnnn3C)CS[C@H]12)c1csc(N)n1

>  <logBB>


>  <Class>
-1

>  <MW>
511.05

>  <nHBAcc>
13

>  <nHBDon>
3

>  <SLogP>
-0.87

>  <TopoPSA>
190.81

>  <MMFF94 Energy>
34.23

$$$$
CO/N=C(/C(=O)N[C@@H]1C(=O)N2C(C(=O)O)=C(Cn3nnc(C)n3)CS[C@H]12)c1csc(N)n1
Actelion Java MolfileCreator 2.0

  0  0  0  0  0  0              0 V3000
M  V30 BEGIN CTAB
M  V30 COUNTS 49 52 0 0 0
M  V30 BEGIN ATOM
M  V30 1 S 0.0 -0.4941 -0.906 0
M  V30 2 C -0.8255 0.965 -0.21 0 CFG=1
M  V30 3 C -1.475 -1.0166 -1.8375 0
M  V30 4 N -1.9274 0.4798 0.5886 0
M  V30 5 C -0.2612 1.5951 1.1015 0 CFG=1
M  V30 6 C -2.7381 -1.0726 -0.9919 0
M  V30 7 C -2.88 -0.3911 0.1698 0
M  V30 8 C -1.551 1.0158 1.7661 0
M  V30 9 N 1.024 1.0812 1.6304 0
M  V30 10 C -3.8069 -1.9961 -1.5561 0
M  V30 11 C -4.0584 -0.5657 1.0604 0
M  V30 12 O -2.0084 0.9459 2.8818 0
M  V30 13 C 2.2293 1.4912 1.0988 0
M  V30 14 N -4.1775 -1.6523 -2.9228 0
M  V30 15 O -4.7937 0.3178 1.4574 0
M  V30 16 O -4.2323 -1.8522 1.4137 0
M  V30 17 O 2.3443 2.274 0.1672 0
M  V30 18 C 3.4516 0.846 1.7498 0
M  V30 19 N -5.0285 -0.6492 -3.196 0
M  V30 20 N -3.6156 -2.248 -3.9947 0
M  V30 21 N 3.4042 -0.455 1.8628 0
M  V30 22 C 4.5303 1.7101 2.2188 0
M  V30 23 N -5.0678 -0.5896 -4.5199 0
M  V30 24 C -4.2174 -1.5594 -4.9761 0
M  V30 25 O 4.4977 -0.9964 2.5512 0
M  V30 26 N 4.2356 2.9597 2.764 0
M  V30 27 C 5.8843 1.4336 2.1549 0
M  V30 28 C -3.9793 -1.8093 -6.407 0
M  V30 29 C 4.3419 -2.4099 2.6061 0
M  V30 30 C 5.333 3.5853 3.1065 0
M  V30 31 S 6.7897 2.735 2.801 0
M  V30 32 N 5.3379 4.8025 3.6562 0
M  V30 33 H -1.1293 1.712 -0.9527 0
M  V30 34 H -1.619 -0.3387 -2.6854 0
M  V30 35 H -1.2444 -2.0115 -2.2321 0
M  V30 36 H -0.2691 2.6928 1.0971 0
M  V30 37 H 1.0518 0.371 2.3565 0
M  V30 38 H -3.4437 -3.0302 -1.5657 0
M  V30 39 H -4.744 -1.9834 -0.9928 0
M  V30 40 H -4.9641 -1.8055 2.0665 0
M  V30 41 H 6.3751 0.5548 1.7626 0
M  V30 42 H -2.931 -1.624 -6.6603 0
M  V30 43 H -4.5993 -1.1545 -7.0269 0
M  V30 44 H -4.2199 -2.8458 -6.6626 0
M  V30 45 H 4.32 -2.8276 1.595 0
M  V30 46 H 3.4237 -2.6689 3.1421 0
M  V30 47 H 5.1954 -2.8308 3.1437 0
M  V30 48 H 6.1929 5.2785 3.9073 0
M  V30 49 H 4.4634 5.2868 3.811 0
M  V30 END ATOM
M  V30 BEGIN BOND
M  V30 1 1 1 2
M  V30 2 1 1 3
M  V30 3 1 2 4
M  V30 4 1 2 5
M  V30 5 1 3 6
M  V30 6 1 4 7
M  V30 7 1 4 8
M  V30 8 1 5 9
M  V30 9 1 6 10
M  V30 10 1 7 11
M  V30 11 2 8 12
M  V30 12 1 9 13
M  V30 13 1 10 14
M  V30 14 2 11 15
M  V30 15 1 11 16
M  V30 16 2 13 17
M  V30 17 1 13 18
M  V30 18 1 14 19
M  V30 19 1 14 20
M  V30 20 2 18 21
M  V30 21 1 18 22
M  V30 22 2 19 23
M  V30 23 2 20 24
M  V30 24 1 21 25
M  V30 25 1 22 26
M  V30 26 2 22 27
M  V30 27 1 24 28
M  V30 28 1 25 29
M  V30 29 2 26 30
M  V30 30 1 27 31
M  V30 31 1 30 32
M  V30 32 1 5 8
M  V30 33 2 6 7
M  V30 34 1 23 24
M  V30 35 1 30 31
M  V30 36 1 2 33
M  V30 37 1 3 34
M  V30 38 1 3 35
M  V30 39 1 5 36
M  V30 40 1 9 37
M  V30 41 1 10 38
M  V30 42 1 10 39
M  V30 43 1 16 40
M  V30 44 1 27 41
M  V30 45 1 28 42
M  V30 46 1 28 43
M  V30 47 1 28 44
M  V30 48 1 29 45
M  V30 49 1 29 46
M  V30 50 1 29 47
M  V30 51 1 32 48
M  V30 52 1 32 49
M  V30 END BOND
M  V30 BEGIN COLLECTION
M  V30 MDLV30/STEABS ATOMS=(2 2 5)
M  V30 END COLLECTION
M  V30 END CTAB
M  END
>  <level_0>
1954

>  <index>
1954

>  <NO.>
1955

>  <Name>
82547-58-8

>  <SMILES>
CO/N=C(/C(=O)N[C@@H]1C(=O)N2C(C(=O)O)=C(Cn3nnc(C)n3)CS[C@H]12)c1csc(N)n1

>  <logBB>


>  <Class>
-1

>  <MW>
479.08

>  <nHBAcc>
12

>  <nHBDon>
3

>  <SLogP>
-1.19

>  <TopoPSA>
190.81

>  <MMFF94 Energy>
60.869

$$$$
CO/N=C(/C(=O)N[C@@H]1C(=O)N2C(C(=O)O)=CCS[C@H]12)c1csc(N)n1
Actelion Java MolfileCreator 2.0

  0  0  0  0  0  0              0 V3000
M  V30 BEGIN CTAB
M  V30 COUNTS 38 40 0 0 0
M  V30 BEGIN ATOM
M  V30 1 S -1.4893 1.5721 0.3308 0
M  V30 2 C -2.3487 0.2156 -0.5224 0 CFG=1
M  V30 3 C -2.6929 2.8324 -0.1933 0
M  V30 4 N -2.3698 0.5284 -1.9354 0
M  V30 5 C -1.5391 -1.0611 -0.9037 0 CFG=1
M  V30 6 C -3.0113 2.7645 -1.6601 0
M  V30 7 C -2.8099 1.6987 -2.459 0
M  V30 8 C -1.7045 -0.5576 -2.373 0
M  V30 9 N -0.1447 -1.1799 -0.4155 0
M  V30 10 C -3.0719 1.7847 -3.9218 0
M  V30 11 O -1.3095 -0.9064 -3.4597 0
M  V30 12 C 0.1319 -1.6353 0.8572 0
M  V30 13 O -3.4643 0.8798 -4.6358 0
M  V30 14 O -2.8548 3.0162 -4.4218 0
M  V30 15 O -0.7129 -2.011 1.6569 0
M  V30 16 C 1.6224 -1.6903 1.1918 0
M  V30 17 N 2.3735 -2.2714 0.2935 0
M  V30 18 C 2.0853 -1.0801 2.4344 0
M  V30 19 O 3.742 -2.2173 0.5889 0
M  V30 20 N 1.4755 0.0792 2.9111 0
M  V30 21 C 3.0904 -1.5592 3.2559 0
M  V30 22 C 4.4566 -2.862 -0.4597 0
M  V30 23 C 2.0181 0.4592 4.0394 0
M  V30 24 S 3.2865 -0.5384 4.6169 0
M  V30 25 N 1.6225 1.5455 4.7084 0
M  V30 26 H -3.3435 -0.009 -0.1193 0
M  V30 27 H -3.6128 2.7313 0.3915 0
M  V30 28 H -2.2581 3.8107 0.035 0
M  V30 29 H -2.0919 -1.9946 -0.7357 0
M  V30 30 H -3.3902 3.6898 -2.0904 0
M  V30 31 H 0.6449 -0.9582 -1.0153 0
M  V30 32 H -3.035 2.9002 -5.3785 0
M  V30 33 H 3.7003 -2.4421 3.1308 0
M  V30 34 H 4.2796 -2.3483 -1.4096 0
M  V30 35 H 4.1538 -3.9109 -0.5347 0
M  V30 36 H 5.524 -2.8182 -0.2279 0
M  V30 37 H 2.042 1.8255 5.5835 0
M  V30 38 H 0.8619 2.1046 4.3442 0
M  V30 END ATOM
M  V30 BEGIN BOND
M  V30 1 1 1 2
M  V30 2 1 1 3
M  V30 3 1 2 4
M  V30 4 1 2 5
M  V30 5 1 3 6
M  V30 6 1 4 7
M  V30 7 1 4 8
M  V30 8 1 5 9
M  V30 9 1 7 10
M  V30 10 2 8 11
M  V30 11 1 9 12
M  V30 12 2 10 13
M  V30 13 1 10 14
M  V30 14 2 12 15
M  V30 15 1 12 16
M  V30 16 2 16 17
M  V30 17 1 16 18
M  V30 18 1 17 19
M  V30 19 1 18 20
M  V30 20 2 18 21
M  V30 21 1 19 22
M  V30 22 2 20 23
M  V30 23 1 21 24
M  V30 24 1 23 25
M  V30 25 1 5 8
M  V30 26 2 6 7
M  V30 27 1 23 24
M  V30 28 1 2 26
M  V30 29 1 3 27
M  V30 30 1 3 28
M  V30 31 1 5 29
M  V30 32 1 6 30
M  V30 33 1 9 31
M  V30 34 1 14 32
M  V30 35 1 21 33
M  V30 36 1 22 34
M  V30 37 1 22 35
M  V30 38 1 22 36
M  V30 39 1 25 37
M  V30 40 1 25 38
M  V30 END BOND
M  V30 BEGIN COLLECTION
M  V30 MDLV30/STEABS ATOMS=(2 2 5)
M  V30 END COLLECTION
M  V30 END CTAB
M  END
>  <level_0>
1955

>  <index>
1955

>  <NO.>
1956

>  <Name>
ceftizoxime

>  <SMILES>
CO/N=C(/C(=O)N[C@@H]1C(=O)N2C(C(=O)O)=CCS[C@H]12)c1csc(N)n1

>  <logBB>


>  <Class>
-1

>  <MW>
383.04

>  <nHBAcc>
9

>  <nHBDon>
3

>  <SLogP>
-0.56

>  <TopoPSA>
147.21

>  <MMFF94 Energy>
42.168

$$$$
CO/N=C(/C(=O)N[C@@H]1C(=O)N2C(C(=O)OC(C)OC(C)=O)=C(COC(N)=O)CS[C@H]12)c1ccco1
Actelion Java MolfileCreator 2.0

  0  0  0  0  0  0              0 V3000
M  V30 BEGIN CTAB
M  V30 COUNTS 57 59 0 0 0
M  V30 BEGIN ATOM
M  V30 1 S 1.2122 0.4039 -2.1019 0
M  V30 2 C 1.0105 -1.3454 -1.6625 0 CFG=1
M  V30 3 C 2.6949 0.6204 -1.0607 0
M  V30 4 N 0.8012 -1.4061 -0.2348 0
M  V30 5 C -0.3961 -2.0077 -1.8089 0 CFG=1
M  V30 6 C 2.5201 0.1022 0.351 0
M  V30 7 C 1.5892 -0.8163 0.6934 0
M  V30 8 C -0.373 -2.0617 -0.244 0
M  V30 9 N -1.4902 -1.2067 -2.4082 0
M  V30 10 C 3.4506 0.7346 1.3611 0
M  V30 11 C 1.3634 -1.1678 2.1218 0
M  V30 12 O -1.1109 -2.4233 0.6406 0
M  V30 13 C -1.6163 -1.0837 -3.777 0
M  V30 14 O 2.9474 2.0411 1.6506 0
M  V30 15 O 1.7922 -2.1886 2.6329 0
M  V30 16 O 0.6881 -0.152 2.7044 0
M  V30 17 O -0.8573 -1.5936 -4.5876 0
M  V30 18 C -2.7878 -0.2036 -4.2135 0
M  V30 19 C 3.4551 2.5933 2.773 0
M  V30 20 C 0.5383 -0.1931 4.1346 0
M  V30 21 N -2.8448 0.977 -3.6612 0
M  V30 22 C -3.7012 -0.8068 -5.1555 0
M  V30 23 O 4.2993 2.1034 3.5043 0
M  V30 24 N 2.8857 3.7982 2.9908 0
M  V30 25 O 1.814 -0.2833 4.7788 0
M  V30 26 C -0.3974 -1.3158 4.5711 0
M  V30 27 O -3.9714 1.7101 -4.0535 0
M  V30 28 O -3.7183 -2.1761 -5.2532 0
M  V30 29 C -4.6377 -0.2914 -6.036 0
M  V30 30 C 1.8876 0.2595 6.0191 0
M  V30 31 C -3.9144 2.9907 -3.4352 0
M  V30 32 C -4.6429 -2.5138 -6.1853 0
M  V30 33 C -5.2396 -1.3892 -6.6976 0
M  V30 34 O 0.9701 0.8114 6.61 0
M  V30 35 C 3.2677 0.0848 6.5743 0
M  V30 36 H 1.8284 -1.9917 -2.0023 0
M  V30 37 H 3.547 0.1219 -1.535 0
M  V30 38 H 2.9038 1.695 -1.0461 0
M  V30 39 H -0.3619 -3.0128 -2.248 0
M  V30 40 H -2.1287 -0.6676 -1.8303 0
M  V30 41 H 3.5344 0.1311 2.2718 0
M  V30 42 H 4.4561 0.8235 0.9324 0
M  V30 43 H 0.0702 0.7672 4.3816 0
M  V30 44 H 3.1593 4.3338 3.801 0
M  V30 45 H 2.1835 4.1489 2.3581 0
M  V30 46 H -0.646 -1.2254 5.6331 0
M  V30 47 H -1.3219 -1.3031 3.9857 0
M  V30 48 H 0.065 -2.2991 4.4441 0
M  V30 49 H -4.8548 0.7559 -6.1924 0
M  V30 50 H -3.0159 3.5264 -3.7564 0
M  V30 51 H -3.923 2.886 -2.346 0
M  V30 52 H -4.7945 3.5619 -3.7419 0
M  V30 53 H -4.7562 -3.5732 -6.3691 0
M  V30 54 H -6.0096 -1.3624 -7.4557 0
M  V30 55 H 3.5006 -0.9793 6.6587 0
M  V30 56 H 3.9938 0.5879 5.9316 0
M  V30 57 H 3.3165 0.5326 7.571 0
M  V30 END ATOM
M  V30 BEGIN BOND
M  V30 1 1 1 2
M  V30 2 1 1 3
M  V30 3 1 2 4
M  V30 4 1 2 5
M  V30 5 1 3 6
M  V30 6 1 4 7
M  V30 7 1 4 8
M  V30 8 1 5 9
M  V30 9 1 6 10
M  V30 10 1 7 11
M  V30 11 2 8 12
M  V30 12 1 9 13
M  V30 13 1 10 14
M  V30 14 2 11 15
M  V30 15 1 11 16
M  V30 16 2 13 17
M  V30 17 1 13 18
M  V30 18 1 14 19
M  V30 19 1 16 20
M  V30 20 2 18 21
M  V30 21 1 18 22
M  V30 22 2 19 23
M  V30 23 1 19 24
M  V30 24 1 20 25
M  V30 25 1 20 26
M  V30 26 1 21 27
M  V30 27 1 22 28
M  V30 28 2 22 29
M  V30 29 1 25 30
M  V30 30 1 27 31
M  V30 31 1 28 32
M  V30 32 1 29 33
M  V30 33 2 30 34
M  V30 34 1 30 35
M  V30 35 1 5 8
M  V30 36 2 6 7
M  V30 37 2 32 33
M  V30 38 1 2 36
M  V30 39 1 3 37
M  V30 40 1 3 38
M  V30 41 1 5 39
M  V30 42 1 9 40
M  V30 43 1 10 41
M  V30 44 1 10 42
M  V30 45 1 20 43
M  V30 46 1 24 44
M  V30 47 1 24 45
M  V30 48 1 26 46
M  V30 49 1 26 47
M  V30 50 1 26 48
M  V30 51 1 29 49
M  V30 52 1 31 50
M  V30 53 1 31 51
M  V30 54 1 31 52
M  V30 55 1 32 53
M  V30 56 1 33 54
M  V30 57 1 35 55
M  V30 58 1 35 56
M  V30 59 1 35 57
M  V30 END BOND
M  V30 BEGIN COLLECTION
M  V30 MDLV30/STEABS ATOMS=(2 2 5)
M  V30 END COLLECTION
M  V30 END CTAB
M  END
>  <level_0>
1956

>  <index>
1956

>  <NO.>
1957

>  <Name>
cefuroxime-axetil

>  <SMILES>
CO/N=C(/C(=O)N[C@@H]1C(=O)N2C(C(=O)OC(C)OC(C)=O)=C(COC(N)=O)CS[C@H]12)c1ccco1

>  <logBB>


>  <Class>
-1

>  <MW>
510.11

>  <nHBAcc>
12

>  <nHBDon>
2

>  <SLogP>
-0.17

>  <TopoPSA>
189.06

>  <MMFF94 Energy>
-22.87

$$$$
CO/N=C(/C(=O)N[C@H]1C(=O)N2C(C(=O)O)=C(COC(C)=O)CS[C@@H]12)c1csc(N)n1
Actelion Java MolfileCreator 2.0

  0  0  0  0  0  0              0 V3000
M  V30 BEGIN CTAB
M  V30 COUNTS 47 49 0 0 0
M  V30 BEGIN ATOM
M  V30 1 S 0.9031 1.0673 0.0 0
M  V30 2 C 1.2127 -0.7189 0.0789 0 CFG=2
M  V30 3 C 2.1538 1.3365 -1.2972 0
M  V30 4 N 0.8977 -1.2616 -1.2219 0
M  V30 5 C 0.0993 -1.6543 0.6454 0 CFG=2
M  V30 6 C 2.0198 0.3916 -2.4766 0
M  V30 7 C 1.375 -0.7955 -2.4024 0
M  V30 8 C -0.0303 -2.1549 -0.8301 0
M  V30 9 N -1.1143 -1.0304 1.2236 0
M  V30 10 C 2.6365 0.9283 -3.7487 0
M  V30 11 C 1.1373 -1.6377 -3.6016 0
M  V30 12 O -0.7282 -2.9311 -1.4375 0
M  V30 13 C -1.1176 -0.5343 2.5112 0
M  V30 14 O 4.0104 1.2336 -3.4727 0
M  V30 15 O 1.5625 -2.764 -3.7778 0
M  V30 16 O 0.3672 -1.0071 -4.5057 0
M  V30 17 O -0.1529 -0.5499 3.2616 0
M  V30 18 C -2.4439 0.0954 2.9351 0
M  V30 19 C 4.6773 1.7656 -4.5333 0
M  V30 20 N -2.9491 0.9565 2.0918 0
M  V30 21 C -3.048 -0.3295 4.1939 0
M  V30 22 O 4.191 1.9958 -5.6306 0
M  V30 23 C 6.1026 2.0357 -4.1612 0
M  V30 24 O -4.2099 1.4364 2.4705 0
M  V30 25 N -2.9324 -1.6558 4.6103 0
M  V30 26 C -3.7321 0.4779 5.0851 0
M  V30 27 C -4.6562 2.3604 1.4842 0
M  V30 28 C -3.5232 -1.8313 5.7649 0
M  V30 29 S -4.2518 -0.4332 6.438 0
M  V30 30 N -3.5652 -3.0099 6.3916 0
M  V30 31 H 2.2182 -0.988 0.4234 0
M  V30 32 H 3.1525 1.2453 -0.8567 0
M  V30 33 H 2.0289 2.3719 -1.6316 0
M  V30 34 H 0.4849 -2.4417 1.3056 0
M  V30 35 H -1.9543 -0.8926 0.6688 0
M  V30 36 H 2.6056 0.208 -4.5713 0
M  V30 37 H 2.1062 1.8395 -4.0516 0
M  V30 38 H 0.2231 -1.6855 -5.1988 0
M  V30 39 H 6.1411 2.7583 -3.3421 0
M  V30 40 H 6.5942 1.1026 -3.8752 0
M  V30 41 H 6.6285 2.4566 -5.0228 0
M  V30 42 H -3.9412 1.5355 5.0131 0
M  V30 43 H -4.7442 1.8641 0.513 0
M  V30 44 H -3.9636 3.2049 1.416 0
M  V30 45 H -5.64 2.7336 1.7806 0
M  V30 46 H -4.0175 -3.1299 7.287 0
M  V30 47 H -3.1144 -3.8149 5.977 0
M  V30 END ATOM
M  V30 BEGIN BOND
M  V30 1 1 1 2
M  V30 2 1 1 3
M  V30 3 1 2 4
M  V30 4 1 2 5
M  V30 5 1 3 6
M  V30 6 1 4 7
M  V30 7 1 4 8
M  V30 8 1 5 9
M  V30 9 1 6 10
M  V30 10 1 7 11
M  V30 11 2 8 12
M  V30 12 1 9 13
M  V30 13 1 10 14
M  V30 14 2 11 15
M  V30 15 1 11 16
M  V30 16 2 13 17
M  V30 17 1 13 18
M  V30 18 1 14 19
M  V30 19 2 18 20
M  V30 20 1 18 21
M  V30 21 2 19 22
M  V30 22 1 19 23
M  V30 23 1 20 24
M  V30 24 1 21 25
M  V30 25 2 21 26
M  V30 26 1 24 27
M  V30 27 2 25 28
M  V30 28 1 26 29
M  V30 29 1 28 30
M  V30 30 1 5 8
M  V30 31 2 6 7
M  V30 32 1 28 29
M  V30 33 1 2 31
M  V30 34 1 3 32
M  V30 35 1 3 33
M  V30 36 1 5 34
M  V30 37 1 9 35
M  V30 38 1 10 36
M  V30 39 1 10 37
M  V30 40 1 16 38
M  V30 41 1 23 39
M  V30 42 1 23 40
M  V30 43 1 23 41
M  V30 44 1 26 42
M  V30 45 1 27 43
M  V30 46 1 27 44
M  V30 47 1 27 45
M  V30 48 1 30 46
M  V30 49 1 30 47
M  V30 END BOND
M  V30 BEGIN COLLECTION
M  V30 MDLV30/STEABS ATOMS=(2 2 5)
M  V30 END COLLECTION
M  V30 END CTAB
M  END
>  <level_0>
1957

>  <index>
1957

>  <NO.>
1958

>  <Name>
schembl13576356

>  <SMILES>
CO/N=C(/C(=O)N[C@H]1C(=O)N2C(C(=O)O)=C(COC(C)=O)CS[C@@H]12)c1csc(N)n1

>  <logBB>


>  <Class>
1

>  <MW>
455.06

>  <nHBAcc>
11

>  <nHBDon>
3

>  <SLogP>
-0.62

>  <TopoPSA>
173.51

>  <MMFF94 Energy>
20.042

$$$$
CO/N=C(\C(=O)N[C@@H]1C(=O)N2C(C(=O)O)=C(CSc3nc(C)c(CC(=O)O)s3)CS[C@H]12)c1csc(N)n1
Actelion Java MolfileCreator 2.0

  0  0  0  0  0  0              0 V3000
M  V30 BEGIN CTAB
M  V30 COUNTS 57 60 0 0 0
M  V30 BEGIN ATOM
M  V30 1 S 0.334 0.0 -0.7517 0
M  V30 2 C 1.456 1.2931 -0.1557 0 CFG=1
M  V30 3 C -1.132 0.7636 0.0282 0
M  V30 4 N 1.4222 1.2719 1.2841 0
M  V30 5 C 2.9709 0.9406 -0.0451 0 CFG=1
M  V30 6 C -0.9268 1.1428 1.4858 0
M  V30 7 C 0.2968 1.3238 2.0357 0
M  V30 8 C 2.7458 1.1437 1.5 0
M  V30 9 N 3.3764 -0.4305 -0.441 0
M  V30 10 C -2.2132 1.2359 2.283 0
M  V30 11 C 0.473 1.5723 3.487 0
M  V30 12 O 3.4035 1.1006 2.5113 0
M  V30 13 C 4.698 -0.7943 -0.572 0
M  V30 14 S -2.935 2.8943 2.1375 0
M  V30 15 O 0.7393 2.6414 4.0027 0
M  V30 16 O 0.313 0.4425 4.1978 0
M  V30 17 O 5.6483 -0.0384 -0.4361 0
M  V30 18 C 4.9191 -2.2775 -0.8628 0
M  V30 19 C -4.1049 2.6751 0.8579 0
M  V30 20 N 4.409 -2.8636 -1.9111 0
M  V30 21 C 5.6911 -3.0977 0.0735 0
M  V30 22 S -5.303 3.8463 0.5112 0
M  V30 23 N -4.1089 1.6143 0.0852 0
M  V30 24 O 3.7075 -1.9722 -2.7364 0
M  V30 25 N 5.8447 -4.4734 -0.1194 0
M  V30 26 C 6.3152 -2.6264 1.2162 0
M  V30 27 C -5.8991 2.8551 -0.758 0
M  V30 28 C -5.1399 1.6978 -0.8378 0
M  V30 29 C 3.2559 -2.6873 -3.8816 0
M  V30 30 C 6.5648 -5.0008 0.8363 0
M  V30 31 S 7.1024 -3.906 2.0396 0
M  V30 32 C -7.0662 3.294 -1.5853 0
M  V30 33 C -5.3257 0.5706 -1.7898 0
M  V30 34 N 6.868 -6.3005 0.8891 0
M  V30 35 C -8.341 2.6274 -1.1264 0
M  V30 36 O -8.4724 1.7013 -0.3444 0
M  V30 37 O -9.4273 3.1578 -1.7296 0
M  V30 38 H 1.2687 2.2887 -0.5753 0
M  V30 39 H -1.9304 0.0204 -0.0601 0
M  V30 40 H -1.4169 1.6463 -0.5529 0
M  V30 41 H 3.6195 1.7038 -0.4904 0
M  V30 42 H 2.6741 -1.1337 -0.6635 0
M  V30 43 H -2.9191 0.4495 1.995 0
M  V30 44 H -2.0372 1.0701 3.3496 0
M  V30 45 H 0.5476 0.7115 5.1107 0
M  V30 46 H 6.3583 -1.6173 1.6038 0
M  V30 47 H 2.5837 -3.4969 -3.5813 0
M  V30 48 H 4.1083 -3.0892 -4.4375 0
M  V30 49 H 2.7083 -1.9951 -4.5265 0
M  V30 50 H -7.1986 4.3802 -1.523 0
M  V30 51 H -6.899 3.0288 -2.6348 0
M  V30 52 H -4.5383 -0.1794 -1.6658 0
M  V30 53 H -6.2901 0.082 -1.6213 0
M  V30 54 H -5.2906 0.9302 -2.8228 0
M  V30 55 H 7.4297 -6.6958 1.6294 0
M  V30 56 H 6.539 -6.9177 0.1584 0
M  V30 57 H -10.1791 2.6486 -1.3576 0
M  V30 END ATOM
M  V30 BEGIN BOND
M  V30 1 1 1 2
M  V30 2 1 1 3
M  V30 3 1 2 4
M  V30 4 1 2 5
M  V30 5 1 3 6
M  V30 6 1 4 7
M  V30 7 1 4 8
M  V30 8 1 5 9
M  V30 9 1 6 10
M  V30 10 1 7 11
M  V30 11 2 8 12
M  V30 12 1 9 13
M  V30 13 1 10 14
M  V30 14 2 11 15
M  V30 15 1 11 16
M  V30 16 2 13 17
M  V30 17 1 13 18
M  V30 18 1 14 19
M  V30 19 2 18 20
M  V30 20 1 18 21
M  V30 21 1 19 22
M  V30 22 2 19 23
M  V30 23 1 20 24
M  V30 24 1 21 25
M  V30 25 2 21 26
M  V30 26 1 22 27
M  V30 27 1 23 28
M  V30 28 1 24 29
M  V30 29 2 25 30
M  V30 30 1 26 31
M  V30 31 1 27 32
M  V30 32 1 28 33
M  V30 33 1 30 34
M  V30 34 1 32 35
M  V30 35 2 35 36
M  V30 36 1 35 37
M  V30 37 1 5 8
M  V30 38 2 6 7
M  V30 39 2 27 28
M  V30 40 1 30 31
M  V30 41 1 2 38
M  V30 42 1 3 39
M  V30 43 1 3 40
M  V30 44 1 5 41
M  V30 45 1 9 42
M  V30 46 1 10 43
M  V30 47 1 10 44
M  V30 48 1 16 45
M  V30 49 1 26 46
M  V30 50 1 29 47
M  V30 51 1 29 48
M  V30 52 1 29 49
M  V30 53 1 32 50
M  V30 54 1 32 51
M  V30 55 1 33 52
M  V30 56 1 33 53
M  V30 57 1 33 54
M  V30 58 1 34 55
M  V30 59 1 34 56
M  V30 60 1 37 57
M  V30 END BOND
M  V30 BEGIN COLLECTION
M  V30 MDLV30/STEABS ATOMS=(2 2 5)
M  V30 END COLLECTION
M  V30 END CTAB
M  END
>  <level_0>
1958

>  <index>
1958

>  <NO.>
1959

>  <Name>
cefodizime

>  <SMILES>
CO/N=C(\C(=O)N[C@@H]1C(=O)N2C(C(=O)O)=C(CSc3nc(C)c(CC(=O)O)s3)CS[C@H]12)c1csc(N)n1

>  <logBB>


>  <Class>
-1

>  <MW>
584.03

>  <nHBAcc>
13

>  <nHBDon>
4

>  <SLogP>
1.0

>  <TopoPSA>
197.4

>  <MMFF94 Energy>
20.499

$$$$
COC1=C(C(=O)O)N2C(=O)C(NC(=O)C(N)C3C=CCC=C3)C2SC1
Actelion Java MolfileCreator 2.0

  0  0  0  0  0  0              0 V3000
M  V30 BEGIN CTAB
M  V30 COUNTS 44 46 0 0 0
M  V30 BEGIN ATOM
M  V30 1 S -3.0061 1.3803 -0.3246 0
M  V30 2 C -1.8658 -0.0038 -0.0422 0
M  V30 3 C -4.2978 0.3027 -1.0422 0
M  V30 4 N -2.5098 -0.9074 0.8836 0
M  V30 5 C -0.7729 0.2033 1.0546 0
M  V30 6 C -4.6078 -0.9147 -0.1896 0
M  V30 7 C -3.7425 -1.4385 0.705 0
M  V30 8 C -1.5283 -0.9575 1.8003 0
M  V30 9 N 0.6233 -0.1221 0.6812 0
M  V30 10 O -5.8293 -1.5251 -0.442 0
M  V30 11 C -4.1208 -2.6058 1.5302 0
M  V30 12 O -1.3738 -1.603 2.809 0
M  V30 13 C 1.2488 0.3655 -0.445 0
M  V30 14 C -6.9223 -0.7833 0.1023 0
M  V30 15 O -3.5924 -3.7031 1.4956 0
M  V30 16 O -5.1097 -2.3191 2.3974 0
M  V30 17 O 0.6722 1.0648 -1.2712 0
M  V30 18 C 2.705 -0.1289 -0.5917 0
M  V30 19 N 3.2577 -0.4637 0.7589 0
M  V30 20 C 3.5717 0.8735 -1.4103 0
M  V30 21 C 3.7783 2.1911 -0.6793 0
M  V30 22 C 4.8929 0.2255 -1.7957 0
M  V30 23 C 4.9841 2.6786 -0.3443 0
M  V30 24 C 6.0945 0.7203 -1.4557 0
M  V30 25 C 6.277 1.9863 -0.6677 0
M  V30 26 H -1.5246 -0.5124 -0.9519 0
M  V30 27 H -3.9825 -0.0213 -2.0398 0
M  V30 28 H -5.1854 0.9288 -1.165 0
M  V30 29 H -0.8167 1.1503 1.6057 0
M  V30 30 H 1.2237 -0.6783 1.2932 0
M  V30 31 H -6.7165 -0.4408 1.1222 0
M  V30 32 H -7.7936 -1.4442 0.1324 0
M  V30 33 H -7.1664 0.0675 -0.5405 0
M  V30 34 H -5.2026 -3.1511 2.9061 0
M  V30 35 H 2.6313 -1.0749 -1.145 0
M  V30 36 H 3.4457 0.4219 1.2381 0
M  V30 37 H 4.1926 -0.8536 0.6112 0
M  V30 38 H 3.0502 1.1083 -2.348 0
M  V30 39 H 2.887 2.7685 -0.4402 0
M  V30 40 H 4.8419 -0.6856 -2.3875 0
M  V30 41 H 5.0527 3.6332 0.1711 0
M  V30 42 H 6.9973 0.2024 -1.7689 0
M  V30 43 H 6.8034 1.7555 0.265 0
M  V30 44 H 6.9084 2.6715 -1.2444 0
M  V30 END ATOM
M  V30 BEGIN BOND
M  V30 1 1 1 2
M  V30 2 1 1 3
M  V30 3 1 2 4
M  V30 4 1 2 5
M  V30 5 1 3 6
M  V30 6 1 4 7
M  V30 7 1 4 8
M  V30 8 1 5 9
M  V30 9 1 6 10
M  V30 10 1 7 11
M  V30 11 2 8 12
M  V30 12 1 9 13
M  V30 13 1 10 14
M  V30 14 2 11 15
M  V30 15 1 11 16
M  V30 16 2 13 17
M  V30 17 1 13 18
M  V30 18 1 18 19
M  V30 19 1 18 20
M  V30 20 1 20 21
M  V30 21 1 20 22
M  V30 22 2 21 23
M  V30 23 2 22 24
M  V30 24 1 23 25
M  V30 25 1 5 8
M  V30 26 2 6 7
M  V30 27 1 24 25
M  V30 28 1 2 26
M  V30 29 1 3 27
M  V30 30 1 3 28
M  V30 31 1 5 29
M  V30 32 1 9 30
M  V30 33 1 14 31
M  V30 34 1 14 32
M  V30 35 1 14 33
M  V30 36 1 16 34
M  V30 37 1 18 35
M  V30 38 1 19 36
M  V30 39 1 19 37
M  V30 40 1 20 38
M  V30 41 1 21 39
M  V30 42 1 22 40
M  V30 43 1 23 41
M  V30 44 1 24 42
M  V30 45 1 25 43
M  V30 46 1 25 44
M  V30 END BOND
M  V30 END CTAB
M  END
>  <level_0>
1976

>  <index>
1976

>  <NO.>
1977

>  <Name>
cefroxadine

>  <SMILES>
COC1=C(C(=O)O)N2C(=O)C(NC(=O)C(N)C3C=CCC=C3)C2SC1

>  <logBB>


>  <Class>
-1

>  <MW>
365.1

>  <nHBAcc>
6

>  <nHBDon>
3

>  <SLogP>
-0.21

>  <TopoPSA>
121.96

>  <MMFF94 Energy>
92.943

$$$$
COC1C(O)CC(=O)OC(C)C/C=C/C=C/C(OC2CCC(N(C)C)C(C)O2)C(C)CC(CC=O)C1OC1OC(C)C(OC2CC(C)(O)C(O)C(C)O2)C(N(C)C)C1O
Actelion Java MolfileCreator 2.0

  0  0  0  0  0  0              0 V3000
M  V30 BEGIN CTAB
M  V30 COUNTS 133 136 0 0 0
M  V30 BEGIN ATOM
M  V30 1 O 3.4082 2.6941 3.8845 0
M  V30 2 C 2.7158 3.4618 3.2315 0
M  V30 3 O 1.7715 4.2954 3.7456 0
M  V30 4 C 2.8421 3.6709 1.7464 0
M  V30 5 C 1.7679 4.4924 5.177 0
M  V30 6 C 1.6628 3.1135 0.947 0
M  V30 7 C 1.2348 3.2843 5.9755 0
M  V30 8 C 0.9383 5.7497 5.4355 0
M  V30 9 O 1.7562 3.708 -0.3558 0
M  V30 10 C 1.6353 1.5546 0.89 0
M  V30 11 C -0.0322 2.6813 5.4311 0
M  V30 12 O 2.9777 1.1078 0.5804 0
M  V30 13 C 0.6638 0.8797 -0.1496 0
M  V30 14 C -0.2016 1.3568 5.3049 0
M  V30 15 C 3.3669 -0.0501 1.3091 0
M  V30 16 O 0.727 1.5184 -1.4331 0
M  V30 17 C -0.8512 0.7648 0.2273 0
M  V30 18 C -1.3384 0.7814 4.6325 0
M  V30 19 C 1.6882 0.9252 -2.3213 0
M  V30 20 C -1.0155 -0.2079 1.4215 0
M  V30 21 C -1.5715 2.1023 0.4463 0
M  V30 22 C -1.423 -0.5307 4.3582 0
M  V30 23 O 1.0993 -0.257 -2.85 0
M  V30 24 C 2.0029 1.964 -3.4183 0
M  V30 25 C -2.437 -0.3795 2.0173 0
M  V30 26 C -1.4396 3.0439 -0.7223 0
M  V30 27 C -2.4014 -1.141 3.3813 0
M  V30 28 C 1.9022 -0.9255 -3.8238 0
M  V30 29 O 2.7402 3.0618 -2.8458 0
M  V30 30 C 2.8262 1.3352 -4.5784 0
M  V30 31 C -3.3628 -1.0934 1.0254 0
M  V30 32 O -0.9392 4.1619 -0.6151 0
M  V30 33 O -3.7012 -1.0907 3.9728 0
M  V30 34 C 2.1888 -0.0116 -5.0356 0
M  V30 35 C 3.1437 -1.5595 -3.1935 0
M  V30 36 N 3.0635 2.3487 -5.657 0
M  V30 37 C -4.2137 -2.3793 4.304 0
M  V30 38 O 3.0676 -0.6617 -5.9651 0
M  V30 39 C 1.9413 2.5715 -6.5584 0
M  V30 40 C 4.2957 2.112 -6.402 0
M  V30 41 O -3.4903 -3.0099 5.3561 0
M  V30 42 C -5.693 -2.256 4.6617 0
M  V30 43 C 2.392 -1.4451 -6.9486 0
M  V30 44 C -3.5741 -2.3102 6.6108 0
M  V30 45 C -5.8905 -1.5288 5.9898 0
M  V30 46 O 1.8471 -2.6192 -6.3528 0
M  V30 47 C 3.433 -1.8387 -7.9948 0
M  V30 48 C -5.0497 -2.1957 7.0958 0
M  V30 49 C -2.7002 -3.0865 7.5933 0
M  V30 50 C 1.1317 -3.4186 -7.2991 0
M  V30 51 C 2.8272 -2.7566 -9.0553 0
M  V30 52 N -5.1861 -1.5807 8.4361 0
M  V30 53 C 2.0854 -3.9381 -8.3909 0
M  V30 54 C 0.4872 -4.5679 -6.5305 0
M  V30 55 O 1.8849 -1.996 -9.829 0
M  V30 56 C 3.9065 -3.2403 -10.0269 0
M  V30 57 C -4.848 -0.1597 8.4907 0
M  V30 58 C -6.5044 -1.8134 9.0248 0
M  V30 59 O 1.3411 -4.6506 -9.3877 0
M  V30 60 H 2.9408 4.7513 1.5731 0
M  V30 61 H 3.7992 3.2576 1.4087 0
M  V30 62 H 2.7947 4.7064 5.5019 0
M  V30 63 H 0.7351 3.4704 1.4027 0
M  V30 64 H 2.0161 2.5154 6.008 0
M  V30 65 H 1.0622 3.5877 7.0155 0
M  V30 66 H 0.8947 5.9876 6.5026 0
M  V30 67 H 1.3763 6.605 4.9088 0
M  V30 68 H -0.0826 5.6433 5.0545 0
M  V30 69 H 0.8662 4.0766 -0.5592 0
M  V30 70 H 1.3988 1.2076 1.901 0
M  V30 71 H -0.8059 3.3665 5.0935 0
M  V30 72 H 1.0011 -0.1578 -0.2801 0
M  V30 73 H 0.5803 0.6782 5.6419 0
M  V30 74 H 2.6831 -0.8817 1.1181 0
M  V30 75 H 4.3686 -0.3396 0.9811 0
M  V30 76 H 3.4019 0.169 2.3803 0
M  V30 77 H -1.3399 0.2988 -0.6409 0
M  V30 78 H -2.0875 1.4651 4.2388 0
M  V30 79 H 2.6022 0.6902 -1.7691 0
M  V30 80 H -0.3409 0.1336 2.2064 0
M  V30 81 H -0.64 -1.1963 1.1234 0
M  V30 82 H -2.6495 1.9428 0.5565 0
M  V30 83 H -1.2286 2.5951 1.3599 0
M  V30 84 H -0.6723 -1.2171 4.7439 0
M  V30 85 H 1.0598 2.3745 -3.797 0
M  V30 86 H -2.8833 0.6028 2.2087 0
M  V30 87 H -1.8288 2.6799 -1.6886 0
M  V30 88 H -2.0861 -2.1755 3.1874 0
M  V30 89 H 1.2812 -1.7598 -4.165 0
M  V30 90 H 2.3473 3.2574 -1.9652 0
M  V30 91 H 3.8174 1.1159 -4.1574 0
M  V30 92 H -3.4354 -0.5415 0.0833 0
M  V30 93 H -2.9982 -2.1014 0.8013 0
M  V30 94 H -4.3777 -1.1822 1.4262 0
M  V30 95 H 1.226 0.2188 -5.5109 0
M  V30 96 H 3.6438 -2.2329 -3.8962 0
M  V30 97 H 2.8638 -2.1346 -2.3041 0
M  V30 98 H 3.8725 -0.8119 -2.868 0
M  V30 99 H -4.1411 -3.0241 3.4198 0
M  V30 100 H 2.1313 3.4481 -7.1885 0
M  V30 101 H 1.7605 1.7197 -7.2221 0
M  V30 102 H 1.0187 2.7849 -6.0101 0
M  V30 103 H 4.2427 1.2304 -7.0462 0
M  V30 104 H 5.1508 1.9997 -5.7266 0
M  V30 105 H 4.5223 2.9747 -7.0392 0
M  V30 106 H -6.2326 -1.7196 3.8731 0
M  V30 107 H -6.1278 -3.2594 4.7476 0
M  V30 108 H 1.595 -0.8464 -7.4077 0
M  V30 109 H -3.1362 -1.3153 6.4808 0
M  V30 110 H -5.6026 -0.4787 5.8624 0
M  V30 111 H -6.9559 -1.5432 6.2439 0
M  V30 112 H 3.8429 -0.9288 -8.4507 0
M  V30 113 H 4.2683 -2.3482 -7.4962 0
M  V30 114 H -5.4104 -3.2322 7.1767 0
M  V30 115 H -1.6866 -3.1982 7.1925 0
M  V30 116 H -3.0896 -4.0989 7.7469 0
M  V30 117 H -2.6306 -2.5854 8.5629 0
M  V30 118 H 0.322 -2.8233 -7.7412 0
M  V30 119 H 2.8141 -4.6228 -7.9376 0
M  V30 120 H -0.1113 -5.207 -7.1861 0
M  V30 121 H 1.247 -5.1833 -6.0364 0
M  V30 122 H -0.1622 -4.1778 -5.739 0
M  V30 123 H 1.3201 -2.6521 -10.2863 0
M  V30 124 H 3.4727 -3.8222 -10.8473 0
M  V30 125 H 4.4166 -2.3893 -10.4931 0
M  V30 126 H 4.6562 -3.8569 -9.5209 0
M  V30 127 H -3.8409 0.0313 8.1087 0
M  V30 128 H -4.8459 0.1863 9.531 0
M  V30 129 H -5.5563 0.4642 7.9355 0
M  V30 130 H -6.5179 -1.4839 10.0701 0
M  V30 131 H -7.3027 -1.284 8.4942 0
M  V30 132 H -6.744 -2.8824 9.0358 0
M  V30 133 H 1.9526 -5.2786 -9.8126 0
M  V30 END ATOM
M  V30 BEGIN BOND
M  V30 1 2 1 2
M  V30 2 1 2 3
M  V30 3 1 2 4
M  V30 4 1 3 5
M  V30 5 1 4 6
M  V30 6 1 5 7
M  V30 7 1 5 8
M  V30 8 1 6 9
M  V30 9 1 6 10
M  V30 10 1 7 11
M  V30 11 1 10 12
M  V30 12 1 10 13
M  V30 13 2 11 14
M  V30 14 1 12 15
M  V30 15 1 13 16
M  V30 16 1 13 17
M  V30 17 1 14 18
M  V30 18 1 16 19
M  V30 19 1 17 20
M  V30 20 1 17 21
M  V30 21 2 18 22
M  V30 22 1 19 23
M  V30 23 1 19 24
M  V30 24 1 20 25
M  V30 25 1 21 26
M  V30 26 1 22 27
M  V30 27 1 23 28
M  V30 28 1 24 29
M  V30 29 1 24 30
M  V30 30 1 25 31
M  V30 31 2 26 32
M  V30 32 1 27 33
M  V30 33 1 28 34
M  V30 34 1 28 35
M  V30 35 1 30 36
M  V30 36 1 33 37
M  V30 37 1 34 38
M  V30 38 1 36 39
M  V30 39 1 36 40
M  V30 40 1 37 41
M  V30 41 1 37 42
M  V30 42 1 38 43
M  V30 43 1 41 44
M  V30 44 1 42 45
M  V30 45 1 43 46
M  V30 46 1 43 47
M  V30 47 1 44 48
M  V30 48 1 44 49
M  V30 49 1 46 50
M  V30 50 1 47 51
M  V30 51 1 48 52
M  V30 52 1 50 53
M  V30 53 1 50 54
M  V30 54 1 51 55
M  V30 55 1 51 56
M  V30 56 1 52 57
M  V30 57 1 52 58
M  V30 58 1 53 59
M  V30 59 1 25 27
M  V30 60 1 30 34
M  V30 61 1 45 48
M  V30 62 1 51 53
M  V30 63 1 4 60
M  V30 64 1 4 61
M  V30 65 1 5 62
M  V30 66 1 6 63
M  V30 67 1 7 64
M  V30 68 1 7 65
M  V30 69 1 8 66
M  V30 70 1 8 67
M  V30 71 1 8 68
M  V30 72 1 9 69
M  V30 73 1 10 70
M  V30 74 1 11 71
M  V30 75 1 13 72
M  V30 76 1 14 73
M  V30 77 1 15 74
M  V30 78 1 15 75
M  V30 79 1 15 76
M  V30 80 1 17 77
M  V30 81 1 18 78
M  V30 82 1 19 79
M  V30 83 1 20 80
M  V30 84 1 20 81
M  V30 85 1 21 82
M  V30 86 1 21 83
M  V30 87 1 22 84
M  V30 88 1 24 85
M  V30 89 1 25 86
M  V30 90 1 26 87
M  V30 91 1 27 88
M  V30 92 1 28 89
M  V30 93 1 29 90
M  V30 94 1 30 91
M  V30 95 1 31 92
M  V30 96 1 31 93
M  V30 97 1 31 94
M  V30 98 1 34 95
M  V30 99 1 35 96
M  V30 100 1 35 97
M  V30 101 1 35 98
M  V30 102 1 37 99
M  V30 103 1 39 100
M  V30 104 1 39 101
M  V30 105 1 39 102
M  V30 106 1 40 103
M  V30 107 1 40 104
M  V30 108 1 40 105
M  V30 109 1 42 106
M  V30 110 1 42 107
M  V30 111 1 43 108
M  V30 112 1 44 109
M  V30 113 1 45 110
M  V30 114 1 45 111
M  V30 115 1 47 112
M  V30 116 1 47 113
M  V30 117 1 48 114
M  V30 118 1 49 115
M  V30 119 1 49 116
M  V30 120 1 49 117
M  V30 121 1 50 118
M  V30 122 1 53 119
M  V30 123 1 54 120
M  V30 124 1 54 121
M  V30 125 1 54 122
M  V30 126 1 55 123
M  V30 127 1 56 124
M  V30 128 1 56 125
M  V30 129 1 56 126
M  V30 130 1 57 127
M  V30 131 1 57 128
M  V30 132 1 57 129
M  V30 133 1 58 130
M  V30 134 1 58 131
M  V30 135 1 58 132
M  V30 136 1 59 133
M  V30 END BOND
M  V30 END CTAB
M  END
>  <level_0>
1979

>  <index>
1979

>  <NO.>
1980

>  <Name>
spiramycin

>  <SMILES>
COC1C(O)CC(=O)OC(C)C/C=C/C=C/C(OC2CCC(N(C)C)C(C)O2)C(C)CC(CC=O)C1OC1OC(C)C(OC2CC(C)(O)C(O)C(C)O2)C(N(C)C)C1O

>  <logBB>


>  <Class>
-1

>  <MW>
842.51

>  <nHBAcc>
16

>  <nHBDon>
4

>  <SLogP>
2.33

>  <TopoPSA>
195.38

>  <MMFF94 Energy>
222.25

$$$$
COC1C=COC2(C)Oc3c(C)c(O)c4c(O)c(c(C=NN5CCN(C)CC5)c(O)c4c3C2=O)NC(=O)C(C)=CC=CC(C)C(O)C(C)C(O)C(C)C(OC(C)=O)C1C
Actelion Java MolfileCreator 2.0

  0  0  0  0  0  0              0 V3000
M  V30 BEGIN CTAB
M  V30 COUNTS 117 121 0 0 0
M  V30 BEGIN ATOM
M  V30 1 O 6.2874 1.3504 1.1914 0
M  V30 2 C 5.1741 1.2238 0.6902 0
M  V30 3 N 4.5594 2.297 0.0897 0
M  V30 4 C 4.459 -0.0806 0.73 0
M  V30 5 C 3.2468 2.3476 -0.4337 0
M  V30 6 C 4.2073 -0.6958 -0.4388 0
M  V30 7 C 4.1633 -0.6038 2.0996 0
M  V30 8 C 3.0886 2.2795 -1.8259 0
M  V30 9 C 2.1204 2.4925 0.3687 0
M  V30 10 C 3.4039 -1.8826 -0.6161 0
M  V30 11 O 4.2403 2.1728 -2.5773 0
M  V30 12 C 1.8164 2.3084 -2.4721 0
M  V30 13 C 0.8479 2.579 -0.2292 0
M  V30 14 C 2.2988 2.6032 1.8336 0
M  V30 15 C 2.0826 -1.8691 -0.3757 0
M  V30 16 C 1.6453 2.1871 -3.8996 0
M  V30 17 C 0.6589 2.4702 -1.6507 0
M  V30 18 O -0.1826 2.8531 0.6332 0
M  V30 19 N 1.5162 2.01 2.6815 0
M  V30 20 C 1.0717 -2.9647 -0.6492 0
M  V30 21 O 2.766 2.0034 -4.676 0
M  V30 22 C 0.3991 2.2559 -4.5439 0
M  V30 23 C -0.5761 2.5226 -2.3499 0
M  V30 24 N 1.853 2.2497 3.982 0
M  V30 25 C 0.2034 -3.3637 0.5847 0
M  V30 26 C 1.6753 -4.2207 -1.2966 0
M  V30 27 C -0.7017 2.4199 -3.7287 0
M  V30 28 C 0.2458 2.144 -6.0322 0
M  V30 29 C -1.9424 2.6937 -1.8926 0
M  V30 30 C 1.4927 1.1505 4.9068 0
M  V30 31 C 1.3109 3.5094 4.5525 0
M  V30 32 O 0.9531 -4.1349 1.5298 0
M  V30 33 C -0.5253 -2.1869 1.2999 0
M  V30 34 O -1.9766 2.5054 -4.2337 0
M  V30 35 O -2.2617 2.8346 -0.7227 0
M  V30 36 C -2.8593 2.6642 -3.1038 0
M  V30 37 C 2.0039 1.398 6.3398 0
M  V30 38 C 1.8177 3.7689 5.9857 0
M  V30 39 C -1.9926 -2.5232 1.7349 0
M  V30 40 C 0.2366 -1.6842 2.5391 0
M  V30 41 O -3.7798 1.593 -2.8759 0
M  V30 42 C -3.6138 3.9813 -3.2316 0
M  V30 43 N 1.4977 2.6621 6.9048 0
M  V30 44 O -2.2374 -3.9283 1.7806 0
M  V30 45 C -3.0952 -1.8188 0.8775 0
M  V30 46 C -4.1182 0.8698 -3.9799 0
M  V30 47 C 2.0595 2.9038 8.2306 0
M  V30 48 C -3.0145 -2.1898 -0.6389 0
M  V30 49 C -3.0538 -0.3081 1.1552 0
M  V30 50 C -3.9246 -0.4518 -4.0659 0
M  V30 51 O -3.5443 -3.5352 -0.7612 0
M  V30 52 C -3.8067 -1.2472 -1.5974 0
M  V30 53 C -3.2325 -1.3253 -3.042 0
M  V30 54 C -2.8318 -4.4554 -1.4564 0
M  V30 55 C -5.3137 -1.5245 -1.5563 0
M  V30 56 O -1.8535 -0.9082 -2.9813 0
M  V30 57 O -1.8239 -4.2368 -2.1132 0
M  V30 58 C -3.4783 -5.8001 -1.3289 0
M  V30 59 C -1.0558 -1.456 -4.0234 0
M  V30 60 H 5.088 3.1624 0.1275 0
M  V30 61 H 4.5859 -0.2831 -1.3725 0
M  V30 62 H 3.8425 -1.6498 2.089 0
M  V30 63 H 5.055 -0.5535 2.7334 0
M  V30 64 H 3.3766 -0.0157 2.5732 0
M  V30 65 H 3.9039 -2.7413 -1.0544 0
M  V30 66 H 4.9974 2.1285 -1.9691 0
M  V30 67 H 3.1735 3.1869 2.1768 0
M  V30 68 H 1.6463 -0.9371 -0.0133 0
M  V30 69 H -1.0673 2.7631 0.2275 0
M  V30 70 H 0.3821 -2.5364 -1.3894 0
M  V30 71 H 2.5344 1.5841 -5.5174 0
M  V30 72 H -0.5454 -4.0521 0.1853 0
M  V30 73 H 2.1598 -3.9777 -2.2488 0
M  V30 74 H 0.8957 -4.9594 -1.5116 0
M  V30 75 H 2.4171 -4.6984 -0.6476 0
M  V30 76 H 0.4163 1.1104 -6.3492 0
M  V30 77 H 0.9571 2.8026 -6.5417 0
M  V30 78 H -0.7516 2.4402 -6.3715 0
M  V30 79 H 1.9358 0.2158 4.5439 0
M  V30 80 H 0.404 1.0067 4.9177 0
M  V30 81 H 1.6166 4.356 3.9259 0
M  V30 82 H 0.213 3.4835 4.5429 0
M  V30 83 H 1.8208 -3.702 1.6262 0
M  V30 84 H -0.568 -1.3375 0.6099 0
M  V30 85 H 1.6772 0.5618 6.9699 0
M  V30 86 H 3.1024 1.3912 6.3329 0
M  V30 87 H 1.352 4.6916 6.3525 0
M  V30 88 H 2.9022 3.9416 5.9537 0
M  V30 89 H -2.1474 -2.1841 2.7675 0
M  V30 90 H 0.2401 -2.4304 3.3408 0
M  V30 91 H 1.2729 -1.4344 2.3035 0
M  V30 92 H -0.2343 -0.7764 2.9326 0
M  V30 93 H -4.2363 3.9812 -4.1332 0
M  V30 94 H -4.2767 4.1465 -2.3754 0
M  V30 95 H -2.9263 4.8302 -3.3126 0
M  V30 96 H -1.5023 -4.331 2.2827 0
M  V30 97 H -4.058 -2.1946 1.2527 0
M  V30 98 H -4.5741 1.4594 -4.7646 0
M  V30 99 H 1.6522 3.8271 8.6571 0
M  V30 100 H 3.1522 2.9862 8.2115 0
M  V30 101 H 1.7874 2.0934 8.9159 0
M  V30 102 H -1.962 -2.174 -0.9276 0
M  V30 103 H -2.2182 0.18 0.6447 0
M  V30 104 H -2.958 -0.106 2.2276 0
M  V30 105 H -3.9823 0.1749 0.8339 0
M  V30 106 H -4.235 -0.9563 -4.977 0
M  V30 107 H -3.6369 -0.2227 -1.2593 0
M  V30 108 H -3.2905 -2.3656 -3.385 0
M  V30 109 H -5.6826 -1.5381 -0.5258 0
M  V30 110 H -5.8743 -0.7479 -2.0859 0
M  V30 111 H -5.5588 -2.4858 -2.0199 0
M  V30 112 H -3.5432 -6.082 -0.2748 0
M  V30 113 H -4.4716 -5.7779 -1.7838 0
M  V30 114 H -2.8697 -6.5454 -1.8487 0
M  V30 115 H -0.0249 -1.1247 -3.8713 0
M  V30 116 H -1.3914 -1.0979 -5.0008 0
M  V30 117 H -1.0741 -2.5484 -3.9968 0
M  V30 END ATOM
M  V30 BEGIN BOND
M  V30 1 2 1 2
M  V30 2 1 2 3
M  V30 3 1 2 4
M  V30 4 1 3 5
M  V30 5 2 4 6
M  V30 6 1 4 7
M  V30 7 2 5 8
M  V30 8 1 5 9
M  V30 9 1 6 10
M  V30 10 1 8 11
M  V30 11 1 8 12
M  V30 12 2 9 13
M  V30 13 1 9 14
M  V30 14 2 10 15
M  V30 15 2 12 16
M  V30 16 1 12 17
M  V30 17 1 13 18
M  V30 18 2 14 19
M  V30 19 1 15 20
M  V30 20 1 16 21
M  V30 21 1 16 22
M  V30 22 2 17 23
M  V30 23 1 19 24
M  V30 24 1 20 25
M  V30 25 1 20 26
M  V30 26 2 22 27
M  V30 27 1 22 28
M  V30 28 1 23 29
M  V30 29 1 24 30
M  V30 30 1 24 31
M  V30 31 1 25 32
M  V30 32 1 25 33
M  V30 33 1 27 34
M  V30 34 2 29 35
M  V30 35 1 29 36
M  V30 36 1 30 37
M  V30 37 1 31 38
M  V30 38 1 33 39
M  V30 39 1 33 40
M  V30 40 1 36 41
M  V30 41 1 36 42
M  V30 42 1 37 43
M  V30 43 1 39 44
M  V30 44 1 39 45
M  V30 45 1 41 46
M  V30 46 1 43 47
M  V30 47 1 45 48
M  V30 48 1 45 49
M  V30 49 2 46 50
M  V30 50 1 48 51
M  V30 51 1 48 52
M  V30 52 1 50 53
M  V30 53 1 51 54
M  V30 54 1 52 55
M  V30 55 1 53 56
M  V30 56 2 54 57
M  V30 57 1 54 58
M  V30 58 1 56 59
M  V30 59 1 13 17
M  V30 60 1 23 27
M  V30 61 1 34 36
M  V30 62 1 38 43
M  V30 63 1 52 53
M  V30 64 1 3 60
M  V30 65 1 6 61
M  V30 66 1 7 62
M  V30 67 1 7 63
M  V30 68 1 7 64
M  V30 69 1 10 65
M  V30 70 1 11 66
M  V30 71 1 14 67
M  V30 72 1 15 68
M  V30 73 1 18 69
M  V30 74 1 20 70
M  V30 75 1 21 71
M  V30 76 1 25 72
M  V30 77 1 26 73
M  V30 78 1 26 74
M  V30 79 1 26 75
M  V30 80 1 28 76
M  V30 81 1 28 77
M  V30 82 1 28 78
M  V30 83 1 30 79
M  V30 84 1 30 80
M  V30 85 1 31 81
M  V30 86 1 31 82
M  V30 87 1 32 83
M  V30 88 1 33 84
M  V30 89 1 37 85
M  V30 90 1 37 86
M  V30 91 1 38 87
M  V30 92 1 38 88
M  V30 93 1 39 89
M  V30 94 1 40 90
M  V30 95 1 40 91
M  V30 96 1 40 92
M  V30 97 1 42 93
M  V30 98 1 42 94
M  V30 99 1 42 95
M  V30 100 1 44 96
M  V30 101 1 45 97
M  V30 102 1 46 98
M  V30 103 1 47 99
M  V30 104 1 47 100
M  V30 105 1 47 101
M  V30 106 1 48 102
M  V30 107 1 49 103
M  V30 108 1 49 104
M  V30 109 1 49 105
M  V30 110 1 50 106
M  V30 111 1 52 107
M  V30 112 1 53 108
M  V30 113 1 55 109
M  V30 114 1 55 110
M  V30 115 1 55 111
M  V30 116 1 58 112
M  V30 117 1 58 113
M  V30 118 1 58 114
M  V30 119 1 59 115
M  V30 120 1 59 116
M  V30 121 1 59 117
M  V30 END BOND
M  V30 END CTAB
M  END
>  <level_0>
1980

>  <index>
1980

>  <NO.>
1981

>  <Name>
rifampin (rifampicin)

>  <SMILES>
COC1C=COC2(C)Oc3c(C)c(O)c4c(O)c(c(C=NN5CCN(C)CC5)c(O)c4c3C2=O)NC(=O)C(C)=CC=CC(C)C(O)C(C)C(O)C(C)C(OC(C)=O)C1C

>  <logBB>


>  <Class>
-1

>  <MW>
822.41

>  <nHBAcc>
15

>  <nHBDon>
6

>  <SLogP>
4.34

>  <TopoPSA>
220.15

>  <MMFF94 Energy>
252.82

$$$$
COC1CC(O[C@@H]2[C@@H](C)C(=O)O[C@H](C)[C@H](C)[C@H](O)[C@@H](C)C(=O)[C@@]3(CO3)C[C@H](C)[C@H](OC3OC(C)CC(N(C)C)C3O)[C@H]2C)OC(C)C1O
Actelion Java MolfileCreator 2.0

  0  0  0  0  0  0              0 V3000
M  V30 BEGIN CTAB
M  V30 COUNTS 109 112 0 0 0
M  V30 BEGIN ATOM
M  V30 1 O 0.8731 -3.2574 2.5416 0
M  V30 2 C 0.1039 -3.3149 1.5941 0
M  V30 3 O -1.2015 -3.7126 1.6761 0
M  V30 4 C 0.4402 -2.945 0.1585 0 CFG=1
M  V30 5 C -1.6892 -4.0524 2.9933 0 CFG=1
M  V30 6 C 0.3927 -1.3966 -0.0013 0 CFG=1
M  V30 7 C 1.7553 -3.6161 -0.2357 0
M  V30 8 C -3.1914 -3.6394 3.0941 0 CFG=1
M  V30 9 C -1.4425 -5.5388 3.2388 0
M  V30 10 O 1.5501 -0.9118 -0.6954 0
M  V30 11 C -0.8783 -0.9325 -0.7902 0 CFG=1
M  V30 12 C -3.3177 -2.1139 2.8147 0 CFG=2
M  V30 13 C -4.0771 -4.4592 2.1478 0
M  V30 14 C 2.4592 -0.1844 0.1357 0
M  V30 15 C -1.0891 0.6221 -0.6699 0 CFG=1
M  V30 16 C -0.8689 -1.4121 -2.2518 0
M  V30 17 O -2.4777 -1.4048 3.7322 0
M  V30 18 C -4.7193 -1.4952 2.8513 0 CFG=2
M  V30 19 O 2.8508 -0.9408 1.2681 0
M  V30 20 C 3.6746 0.1574 -0.7168 0
M  V30 21 O -1.0784 1.2657 -1.9526 0
M  V30 22 C -2.4512 1.0201 -0.0111 0 CFG=2
M  V30 23 C -4.8358 -0.1243 2.1724 0
M  V30 24 C -5.3121 -1.4067 4.2573 0
M  V30 25 C 3.7561 -0.2424 2.1327 0
M  V30 26 C 4.6773 0.9566 0.1107 0
M  V30 27 C 0.1866 1.8376 -2.3057 0
M  V30 28 C -2.405 0.7427 1.5054 0
M  V30 29 C -3.649 0.4015 -0.7405 0
M  V30 30 O -5.9263 0.2157 1.7083 0
M  V30 31 C -3.7164 0.8909 2.2591 0 CFG=1
M  V30 32 C 5.0372 0.1795 1.3899 0
M  V30 33 C 4.0491 -1.1595 3.3135 0
M  V30 34 O 5.899 1.1817 -0.6118 0
M  V30 35 O 0.4888 2.9181 -1.4202 0
M  V30 36 C 0.0512 2.3372 -3.7657 0
M  V30 37 O -4.1853 2.2639 2.1935 0
M  V30 38 C -3.7476 1.8207 3.4714 0
M  V30 39 O 5.8278 -0.9632 1.0333 0
M  V30 40 C 5.788 2.1725 -1.6258 0
M  V30 41 C 1.7065 3.5887 -1.7455 0
M  V30 42 O -1.0727 3.2342 -3.852 0
M  V30 43 C 1.3696 3.0396 -4.1733 0
M  V30 44 C 1.6727 4.163 -3.1639 0
M  V30 45 C 1.9171 4.688 -0.7132 0
M  V30 46 N 1.5202 3.5189 -5.5699 0
M  V30 47 C 0.4898 4.4654 -6.002 0
M  V30 48 C 1.5895 2.4075 -6.5207 0
M  V30 49 H -0.3305 -3.4144 -0.4635 0
M  V30 50 H -1.1383 -3.4918 3.7589 0
M  V30 51 H 0.3301 -0.9334 0.9932 0
M  V30 52 H 1.6774 -4.703 -0.1167 0
M  V30 53 H 2.0009 -3.4152 -1.2832 0
M  V30 54 H 2.5921 -3.291 0.3882 0
M  V30 55 H -3.5115 -3.842 4.1243 0
M  V30 56 H -1.8037 -6.1525 2.4076 0
M  V30 57 H -1.9135 -5.8729 4.1679 0
M  V30 58 H -0.3672 -5.7354 3.3119 0
M  V30 59 H -1.7189 -1.4332 -0.2973 0
M  V30 60 H -2.9268 -1.9546 1.8068 0
M  V30 61 H -3.8399 -4.2535 1.099 0
M  V30 62 H -5.1373 -4.2427 2.3078 0
M  V30 63 H -3.9628 -5.5333 2.3191 0
M  V30 64 H 1.96 0.7355 0.4649 0
M  V30 65 H -0.3049 1.0564 -0.0392 0
M  V30 66 H -1.7755 -1.0868 -2.7728 0
M  V30 67 H -0.0035 -1.0342 -2.8038 0
M  V30 68 H -0.8456 -2.503 -2.3204 0
M  V30 69 H -2.6343 -1.7444 4.632 0
M  V30 70 H -5.3808 -2.1303 2.2503 0
M  V30 71 H 4.1459 -0.7606 -1.0922 0
M  V30 72 H 3.3677 0.7036 -1.614 0
M  V30 73 H -2.5615 2.1072 -0.1378 0
M  V30 74 H -6.3334 -1.0109 4.2236 0
M  V30 75 H -4.7322 -0.7406 4.9038 0
M  V30 76 H -5.3547 -2.3925 4.7302 0
M  V30 77 H 3.2424 0.6524 2.5071 0
M  V30 78 H 4.2424 1.9228 0.3991 0
M  V30 79 H 0.9701 1.0767 -2.2423 0
M  V30 80 H -1.6751 1.4427 1.937 0
M  V30 81 H -1.959 -0.2306 1.6834 0
M  V30 82 H -3.7711 -0.6607 -0.5109 0
M  V30 83 H -3.551 0.5052 -1.8259 0
M  V30 84 H -4.5746 0.9159 -0.4648 0
M  V30 85 H 5.6686 0.7981 2.0378 0
M  V30 86 H 3.1222 -1.393 3.8491 0
M  V30 87 H 4.7474 -0.6939 4.0153 0
M  V30 88 H 4.4636 -2.1177 2.9824 0
M  V30 89 H -0.1716 1.4876 -4.4194 0
M  V30 90 H -4.5068 1.6762 4.2301 0
M  V30 91 H -2.8143 2.215 3.8535 0
M  V30 92 H 6.4422 -0.6455 0.342 0
M  V30 93 H 5.1317 1.8351 -2.4319 0
M  V30 94 H 6.7832 2.3433 -2.045 0
M  V30 95 H 5.421 3.1148 -1.2078 0
M  V30 96 H 2.5312 2.8738 -1.6538 0
M  V30 97 H -1.7175 2.8986 -3.1965 0
M  V30 98 H 2.173 2.3007 -4.0329 0
M  V30 99 H 2.6355 4.6349 -3.3948 0
M  V30 100 H 0.9022 4.9413 -3.2165 0
M  V30 101 H 1.0883 5.4044 -0.7274 0
M  V30 102 H 1.9467 4.2619 0.2956 0
M  V30 103 H 2.8522 5.2275 -0.8909 0
M  V30 104 H 0.7655 4.8908 -6.9743 0
M  V30 105 H 0.4009 5.3159 -5.3204 0
M  V30 106 H -0.4936 3.9995 -6.1194 0
M  V30 107 H 2.3942 1.7147 -6.2509 0
M  V30 108 H 0.6522 1.8438 -6.5776 0
M  V30 109 H 1.8251 2.7778 -7.5249 0
M  V30 END ATOM
M  V30 BEGIN BOND
M  V30 1 2 1 2
M  V30 2 1 2 3
M  V30 3 1 2 4
M  V30 4 1 3 5
M  V30 5 1 4 6
M  V30 6 1 4 7
M  V30 7 1 5 8
M  V30 8 1 5 9
M  V30 9 1 6 10
M  V30 10 1 6 11
M  V30 11 1 8 12
M  V30 12 1 8 13
M  V30 13 1 10 14
M  V30 14 1 11 15
M  V30 15 1 11 16
M  V30 16 1 12 17
M  V30 17 1 12 18
M  V30 18 1 14 19
M  V30 19 1 14 20
M  V30 20 1 15 21
M  V30 21 1 15 22
M  V30 22 1 18 23
M  V30 23 1 18 24
M  V30 24 1 19 25
M  V30 25 1 20 26
M  V30 26 1 21 27
M  V30 27 1 22 28
M  V30 28 1 22 29
M  V30 29 2 23 30
M  V30 30 1 23 31
M  V30 31 1 25 32
M  V30 32 1 25 33
M  V30 33 1 26 34
M  V30 34 1 27 35
M  V30 35 1 27 36
M  V30 36 1 31 37
M  V30 37 1 31 38
M  V30 38 1 32 39
M  V30 39 1 34 40
M  V30 40 1 35 41
M  V30 41 1 36 42
M  V30 42 1 36 43
M  V30 43 1 41 44
M  V30 44 1 41 45
M  V30 45 1 43 46
M  V30 46 1 46 47
M  V30 47 1 46 48
M  V30 48 1 26 32
M  V30 49 1 28 31
M  V30 50 1 37 38
M  V30 51 1 43 44
M  V30 52 1 4 49
M  V30 53 1 5 50
M  V30 54 1 6 51
M  V30 55 1 7 52
M  V30 56 1 7 53
M  V30 57 1 7 54
M  V30 58 1 8 55
M  V30 59 1 9 56
M  V30 60 1 9 57
M  V30 61 1 9 58
M  V30 62 1 11 59
M  V30 63 1 12 60
M  V30 64 1 13 61
M  V30 65 1 13 62
M  V30 66 1 13 63
M  V30 67 1 14 64
M  V30 68 1 15 65
M  V30 69 1 16 66
M  V30 70 1 16 67
M  V30 71 1 16 68
M  V30 72 1 17 69
M  V30 73 1 18 70
M  V30 74 1 20 71
M  V30 75 1 20 72
M  V30 76 1 22 73
M  V30 77 1 24 74
M  V30 78 1 24 75
M  V30 79 1 24 76
M  V30 80 1 25 77
M  V30 81 1 26 78
M  V30 82 1 27 79
M  V30 83 1 28 80
M  V30 84 1 28 81
M  V30 85 1 29 82
M  V30 86 1 29 83
M  V30 87 1 29 84
M  V30 88 1 32 85
M  V30 89 1 33 86
M  V30 90 1 33 87
M  V30 91 1 33 88
M  V30 92 1 36 89
M  V30 93 1 38 90
M  V30 94 1 38 91
M  V30 95 1 39 92
M  V30 96 1 40 93
M  V30 97 1 40 94
M  V30 98 1 40 95
M  V30 99 1 41 96
M  V30 100 1 42 97
M  V30 101 1 43 98
M  V30 102 1 44 99
M  V30 103 1 44 100
M  V30 104 1 45 101
M  V30 105 1 45 102
M  V30 106 1 45 103
M  V30 107 1 47 104
M  V30 108 1 47 105
M  V30 109 1 47 106
M  V30 110 1 48 107
M  V30 111 1 48 108
M  V30 112 1 48 109
M  V30 END BOND
M  V30 BEGIN COLLECTION
M  V30 MDLV30/STEABS ATOMS=(10 4 5 6 8 11 12 15 18 22 31)
M  V30 END COLLECTION
M  V30 END CTAB
M  END
>  <level_0>
1981

>  <index>
1981

>  <NO.>
1982

>  <Name>
oleandomycin

>  <SMILES>
COC1CC(O[C@@H]2[C@@H](C)C(=O)O[C@H](C)[C@H](C)[C@H](O)[C@@H](C)C(=O)[C@@]3(CO3)C[C@H](C)[C@H](OC3OC(C)CC(N(C)C)C3O)[C@H]2C)OC(C)C1O

>  <logBB>


>  <Class>
-1

>  <MW>
687.42

>  <nHBAcc>
13

>  <nHBDon>
3

>  <SLogP>
1.91

>  <TopoPSA>
165.98

>  <MMFF94 Energy>
168.65

$$$$
COCC(=O)O[C@]1(CCN(C)CCCc2nc3ccccc3[nH]2)CCc2cc(F)ccc2[C@@H]1C(C)C
Actelion Java MolfileCreator 2.0

  0  0  0  0  0  0              0 V3000
M  V30 BEGIN CTAB
M  V30 COUNTS 74 77 0 0 0
M  V30 BEGIN ATOM
M  V30 1 F 0.7151 2.0671 6.1314 0
M  V30 2 C 0.9483 2.2063 4.8198 0
M  V30 3 C -0.0995 2.5364 3.9691 0
M  V30 4 C 2.2292 2.0061 4.3283 0
M  V30 5 C 0.1268 2.684 2.5917 0
M  V30 6 C 2.4689 2.1485 2.9625 0
M  V30 7 C 1.4278 2.4983 2.0835 0
M  V30 8 C -1.0561 2.9589 1.6972 0
M  V30 9 C 1.7206 2.6926 0.6023 0 CFG=1
M  V30 10 C -0.7221 3.2114 0.2277 0
M  V30 11 C 0.4553 2.3563 -0.285 0 CFG=1
M  V30 12 C 2.374 4.0992 0.2969 0
M  V30 13 O 0.801 2.7425 -1.6523 0
M  V30 14 C 0.1057 0.8325 -0.2327 0
M  V30 15 C 1.9643 5.254 1.2222 0
M  V30 16 C 3.9089 4.001 0.2964 0
M  V30 17 C -0.0945 2.6342 -2.6782 0
M  V30 18 C 1.0961 -0.0835 -0.9756 0
M  V30 19 O -1.224 2.1796 -2.5847 0
M  V30 20 C 0.5568 3.1657 -3.9533 0
M  V30 21 N 0.7329 -1.5102 -0.8387 0
M  V30 22 O -0.2874 3.0691 -5.0932 0
M  V30 23 C -0.3813 -1.8693 -1.742 0
M  V30 24 C 1.909 -2.3445 -1.1163 0
M  V30 25 C 0.3373 3.5813 -6.2609 0
M  V30 26 C -1.0672 -3.1869 -1.3588 0
M  V30 27 C -1.6871 -3.1324 0.0388 0
M  V30 28 C -2.335 -4.4293 0.3875 0
M  V30 29 N -3.4603 -4.9071 -0.1031 0
M  V30 30 N -1.7899 -5.2986 1.3007 0
M  V30 31 C -3.6454 -6.1216 0.511 0
M  V30 32 C -2.6099 -6.3926 1.3978 0
M  V30 33 C -4.6807 -7.0552 0.361 0
M  V30 34 C -2.5389 -7.5597 2.1612 0
M  V30 35 C -4.6356 -8.2355 1.1143 0
M  V30 36 C -3.5813 -8.4802 1.9983 0
M  V30 37 H -1.094 2.6641 4.3878 0
M  V30 38 H 3.0311 1.7407 5.0092 0
M  V30 39 H 3.4765 1.9847 2.5878 0
M  V30 40 H -1.7254 2.0906 1.757 0
M  V30 41 H -1.6135 3.821 2.0837 0
M  V30 42 H 2.4775 1.9497 0.323 0
M  V30 43 H -0.5015 4.272 0.0645 0
M  V30 44 H -1.6306 3.0397 -0.3602 0
M  V30 45 H 2.1057 4.4051 -0.7202 0
M  V30 46 H -0.8952 0.696 -0.654 0
M  V30 47 H 0.0281 0.491 0.8063 0
M  V30 48 H 0.8821 5.3898 1.2646 0
M  V30 49 H 2.3895 6.1964 0.8577 0
M  V30 50 H 2.3333 5.1118 2.2432 0
M  V30 51 H 4.3545 4.9486 -0.0262 0
M  V30 52 H 4.2511 3.2262 -0.3975 0
M  V30 53 H 4.3034 3.7725 1.2905 0
M  V30 54 H 1.1805 0.189 -2.034 0
M  V30 55 H 2.0858 0.0674 -0.5319 0
M  V30 56 H 0.8117 4.2178 -3.7827 0
M  V30 57 H 1.466 2.5807 -4.132 0
M  V30 58 H -0.0319 -1.926 -2.7813 0
M  V30 59 H -1.1574 -1.0963 -1.7278 0
M  V30 60 H 1.6937 -3.4053 -0.9566 0
M  V30 61 H 2.2752 -2.2132 -2.1409 0
M  V30 62 H 2.7246 -2.0989 -0.4263 0
M  V30 63 H -0.3581 3.4775 -7.098 0
M  V30 64 H 1.2457 3.0155 -6.4892 0
M  V30 65 H 0.576 4.6418 -6.1344 0
M  V30 66 H -0.3667 -4.0268 -1.4327 0
M  V30 67 H -1.8548 -3.391 -2.0965 0
M  V30 68 H -0.9264 -2.8884 0.7896 0
M  V30 69 H -2.4419 -2.3379 0.0807 0
M  V30 70 H -0.932 -5.1525 1.8117 0
M  V30 71 H -5.4947 -6.8564 -0.3266 0
M  V30 72 H -1.7218 -7.7498 2.848 0
M  V30 73 H -5.4326 -8.9674 1.0076 0
M  V30 74 H -3.5705 -9.4047 2.5722 0
M  V30 END ATOM
M  V30 BEGIN BOND
M  V30 1 1 1 2
M  V30 2 2 2 3
M  V30 3 1 2 4
M  V30 4 1 3 5
M  V30 5 2 4 6
M  V30 6 2 5 7
M  V30 7 1 5 8
M  V30 8 1 7 9
M  V30 9 1 8 10
M  V30 10 1 9 11
M  V30 11 1 9 12
M  V30 12 1 11 13
M  V30 13 1 11 14
M  V30 14 1 12 15
M  V30 15 1 12 16
M  V30 16 1 13 17
M  V30 17 1 14 18
M  V30 18 2 17 19
M  V30 19 1 17 20
M  V30 20 1 18 21
M  V30 21 1 20 22
M  V30 22 1 21 23
M  V30 23 1 21 24
M  V30 24 1 22 25
M  V30 25 1 23 26
M  V30 26 1 26 27
M  V30 27 1 27 28
M  V30 28 2 28 29
M  V30 29 1 28 30
M  V30 30 1 29 31
M  V30 31 1 30 32
M  V30 32 1 31 33
M  V30 33 1 32 34
M  V30 34 2 33 35
M  V30 35 2 34 36
M  V30 36 1 6 7
M  V30 37 1 10 11
M  V30 38 2 31 32
M  V30 39 1 35 36
M  V30 40 1 3 37
M  V30 41 1 4 38
M  V30 42 1 6 39
M  V30 43 1 8 40
M  V30 44 1 8 41
M  V30 45 1 9 42
M  V30 46 1 10 43
M  V30 47 1 10 44
M  V30 48 1 12 45
M  V30 49 1 14 46
M  V30 50 1 14 47
M  V30 51 1 15 48
M  V30 52 1 15 49
M  V30 53 1 15 50
M  V30 54 1 16 51
M  V30 55 1 16 52
M  V30 56 1 16 53
M  V30 57 1 18 54
M  V30 58 1 18 55
M  V30 59 1 20 56
M  V30 60 1 20 57
M  V30 61 1 23 58
M  V30 62 1 23 59
M  V30 63 1 24 60
M  V30 64 1 24 61
M  V30 65 1 24 62
M  V30 66 1 25 63
M  V30 67 1 25 64
M  V30 68 1 25 65
M  V30 69 1 26 66
M  V30 70 1 26 67
M  V30 71 1 27 68
M  V30 72 1 27 69
M  V30 73 1 30 70
M  V30 74 1 33 71
M  V30 75 1 34 72
M  V30 76 1 35 73
M  V30 77 1 36 74
M  V30 END BOND
M  V30 BEGIN COLLECTION
M  V30 MDLV30/STEABS ATOMS=(2 9 11)
M  V30 END COLLECTION
M  V30 END CTAB
M  END
>  <level_0>
1984

>  <index>
1984

>  <NO.>
1985

>  <Name>
mibefradil

>  <SMILES>
COCC(=O)O[C@]1(CCN(C)CCCc2nc3ccccc3[nH]2)CCc2cc(F)ccc2[C@@H]1C(C)C

>  <logBB>


>  <Class>
-1

>  <MW>
495.29

>  <nHBAcc>
5

>  <nHBDon>
1

>  <SLogP>
5.27

>  <TopoPSA>
67.45

>  <MMFF94 Energy>
98.345

$$$$
COCC1=C(C(=O)O)N2C(=O)[C@@H](NC(=O)/C(=N/O)c3csc(N)n3)[C@H]2SC1
Actelion Java MolfileCreator 2.0

  0  0  0  0  0  0              0 V3000
M  V30 BEGIN CTAB
M  V30 COUNTS 42 44 0 0 0
M  V30 BEGIN ATOM
M  V30 1 S 1.4824 1.1528 -0.1646 0
M  V30 2 C 1.5566 -0.6423 0.034 0 CFG=1
M  V30 3 C 2.6918 1.4606 1.1671 0
M  V30 4 N 1.1105 -0.9528 1.3737 0
M  V30 5 C 0.3683 -1.5162 -0.4698 0 CFG=1
M  V30 6 C 2.3875 0.7154 2.4545 0
M  V30 7 C 1.6093 -0.3901 2.5026 0
M  V30 8 C 0.213 -1.9002 1.0432 0
M  V30 9 N -0.7985 -0.8319 -1.0782 0
M  V30 10 C 3.0133 1.3486 3.6746 0
M  V30 11 C 1.2247 -0.9948 3.8014 0
M  V30 12 O -0.4542 -2.667 1.6949 0
M  V30 13 C -0.8256 -0.5256 -2.4231 0
M  V30 14 O 2.4413 2.6425 3.8458 0
M  V30 15 O 1.9775 -1.5547 4.5782 0
M  V30 16 O -0.0841 -0.8253 4.0499 0
M  V30 17 O 0.0756 -0.774 -3.2106 0
M  V30 18 C -2.0885 0.2084 -2.8724 0
M  V30 19 C 2.9627 3.3008 4.993 0
M  V30 20 N -2.382 1.2875 -2.1938 0
M  V30 21 C -2.8691 -0.3591 -3.9679 0
M  V30 22 O -3.5906 1.8848 -2.5684 0
M  V30 23 N -2.947 -1.7438 -4.1226 0
M  V30 24 C -3.5518 0.3496 -4.9403 0
M  V30 25 C -3.6744 -2.0528 -5.1658 0
M  V30 26 S -4.3114 -0.722 -6.0382 0
M  V30 27 N -3.9138 -3.3121 -5.5412 0
M  V30 28 H 2.5359 -1.0789 -0.1983 0
M  V30 29 H 3.6925 1.1886 0.8144 0
M  V30 30 H 2.684 2.5422 1.3338 0
M  V30 31 H 0.6836 -2.3741 -1.0767 0
M  V30 32 H -1.572 -0.5023 -0.508 0
M  V30 33 H 2.8636 0.7694 4.5892 0
M  V30 34 H 4.0948 1.4429 3.5168 0
M  V30 35 H -0.2491 -1.3252 4.8743 0
M  V30 36 H 2.4991 4.2885 5.0634 0
M  V30 37 H 4.0457 3.4284 4.9023 0
M  V30 38 H 2.7234 2.7374 5.9 0
M  V30 39 H -3.6419 2.6564 -1.9714 0
M  V30 40 H -3.6337 1.42 -5.0617 0
M  V30 41 H -4.4702 -3.5367 -6.3538 0
M  V30 42 H -3.5132 -4.0772 -5.0146 0
M  V30 END ATOM
M  V30 BEGIN BOND
M  V30 1 1 1 2
M  V30 2 1 1 3
M  V30 3 1 2 4
M  V30 4 1 2 5
M  V30 5 1 3 6
M  V30 6 1 4 7
M  V30 7 1 4 8
M  V30 8 1 5 9
M  V30 9 1 6 10
M  V30 10 1 7 11
M  V30 11 2 8 12
M  V30 12 1 9 13
M  V30 13 1 10 14
M  V30 14 2 11 15
M  V30 15 1 11 16
M  V30 16 2 13 17
M  V30 17 1 13 18
M  V30 18 1 14 19
M  V30 19 2 18 20
M  V30 20 1 18 21
M  V30 21 1 20 22
M  V30 22 1 21 23
M  V30 23 2 21 24
M  V30 24 2 23 25
M  V30 25 1 24 26
M  V30 26 1 25 27
M  V30 27 1 5 8
M  V30 28 2 6 7
M  V30 29 1 25 26
M  V30 30 1 2 28
M  V30 31 1 3 29
M  V30 32 1 3 30
M  V30 33 1 5 31
M  V30 34 1 9 32
M  V30 35 1 10 33
M  V30 36 1 10 34
M  V30 37 1 16 35
M  V30 38 1 19 36
M  V30 39 1 19 37
M  V30 40 1 19 38
M  V30 41 1 22 39
M  V30 42 1 24 40
M  V30 43 1 27 41
M  V30 44 1 27 42
M  V30 END BOND
M  V30 BEGIN COLLECTION
M  V30 MDLV30/STEABS ATOMS=(2 2 5)
M  V30 END COLLECTION
M  V30 END CTAB
M  END
>  <level_0>
1985

>  <index>
1985

>  <NO.>
1986

>  <Name>
schembl417203

>  <SMILES>
COCC1=C(C(=O)O)N2C(=O)[C@@H](NC(=O)/C(=N/O)c3csc(N)n3)[C@H]2SC1

>  <logBB>


>  <Class>
-1

>  <MW>
413.05

>  <nHBAcc>
10

>  <nHBDon>
4

>  <SLogP>
-0.71

>  <TopoPSA>
167.44

>  <MMFF94 Energy>
45.21

$$$$
COCC1=C(C(=O)O)N2C(=O)[C@@H](NC(=O)/C(=N/OC)c3csc(N)n3)[C@H]2SC1
Actelion Java MolfileCreator 2.0

  0  0  0  0  0  0              0 V3000
M  V30 BEGIN CTAB
M  V30 COUNTS 45 47 0 0 0
M  V30 BEGIN ATOM
M  V30 1 S 1.4774 0.8206 -0.164 0
M  V30 2 C 1.2844 -0.9135 0.3342 0 CFG=1
M  V30 3 C 2.9175 1.079 0.9242 0
M  V30 4 N 1.0028 -0.9178 1.7512 0
M  V30 5 C -0.1036 -1.5992 0.1415 0 CFG=1
M  V30 6 C 2.6881 0.6206 2.3531 0
M  V30 7 C 1.746 -0.2878 2.6978 0
M  V30 8 C -0.1804 -1.5598 1.7018 0
M  V30 9 N -1.163 -0.8497 -0.5747 0
M  V30 10 C 3.5911 1.31 3.3482 0
M  V30 11 C 1.4493 -0.5886 4.1247 0
M  V30 12 O -0.9879 -1.8649 2.5476 0
M  V30 13 C -1.2052 -0.813 -1.9532 0
M  V30 14 O 4.9339 1.191 2.8739 0
M  V30 15 O 1.2997 0.224 5.0198 0
M  V30 16 O 1.4079 -1.9144 4.3461 0
M  V30 17 O -0.3986 -1.3667 -2.6856 0
M  V30 18 C -2.3457 0.0313 -2.5209 0
M  V30 19 C 5.8531 1.8428 3.742 0
M  V30 20 N -2.4796 1.2191 -1.9925 0
M  V30 21 C -3.1994 -0.5495 -3.5524 0
M  V30 22 O -3.5934 1.9218 -2.4709 0
M  V30 23 N -3.5208 -1.9062 -3.5105 0
M  V30 24 C -3.731 0.1173 -4.6419 0
M  V30 25 C -3.634 3.1928 -1.8313 0
M  V30 26 C -4.2769 -2.2337 -4.5273 0
M  V30 27 S -4.6548 -0.955 -5.6047 0
M  V30 28 N -4.7316 -3.4732 -4.7293 0
M  V30 29 H 2.1269 -1.5601 0.0617 0
M  V30 30 H 3.7845 0.5624 0.4987 0
M  V30 31 H 3.1237 2.1545 0.9046 0
M  V30 32 H -0.0338 -2.629 -0.2318 0
M  V30 33 H -1.8421 -0.284 -0.0732 0
M  V30 34 H 3.317 2.3694 3.418 0
M  V30 35 H 3.5479 0.8681 4.3466 0
M  V30 36 H 1.1271 -1.9976 5.28 0
M  V30 37 H 6.8583 1.7253 3.3288 0
M  V30 38 H 5.8289 1.3884 4.7372 0
M  V30 39 H 5.6251 2.911 3.8088 0
M  V30 40 H -3.6184 1.1561 -4.9168 0
M  V30 41 H -2.73 3.7632 -2.0654 0
M  V30 42 H -3.7329 3.0686 -0.7485 0
M  V30 43 H -4.5035 3.7399 -2.2048 0
M  V30 44 H -5.3068 -3.7148 -5.5238 0
M  V30 45 H -4.4795 -4.2109 -4.0847 0
M  V30 END ATOM
M  V30 BEGIN BOND
M  V30 1 1 1 2
M  V30 2 1 1 3
M  V30 3 1 2 4
M  V30 4 1 2 5
M  V30 5 1 3 6
M  V30 6 1 4 7
M  V30 7 1 4 8
M  V30 8 1 5 9
M  V30 9 1 6 10
M  V30 10 1 7 11
M  V30 11 2 8 12
M  V30 12 1 9 13
M  V30 13 1 10 14
M  V30 14 2 11 15
M  V30 15 1 11 16
M  V30 16 2 13 17
M  V30 17 1 13 18
M  V30 18 1 14 19
M  V30 19 2 18 20
M  V30 20 1 18 21
M  V30 21 1 20 22
M  V30 22 1 21 23
M  V30 23 2 21 24
M  V30 24 1 22 25
M  V30 25 2 23 26
M  V30 26 1 24 27
M  V30 27 1 26 28
M  V30 28 1 5 8
M  V30 29 2 6 7
M  V30 30 1 26 27
M  V30 31 1 2 29
M  V30 32 1 3 30
M  V30 33 1 3 31
M  V30 34 1 5 32
M  V30 35 1 9 33
M  V30 36 1 10 34
M  V30 37 1 10 35
M  V30 38 1 16 36
M  V30 39 1 19 37
M  V30 40 1 19 38
M  V30 41 1 19 39
M  V30 42 1 24 40
M  V30 43 1 25 41
M  V30 44 1 25 42
M  V30 45 1 25 43
M  V30 46 1 28 44
M  V30 47 1 28 45
M  V30 END BOND
M  V30 BEGIN COLLECTION
M  V30 MDLV30/STEABS ATOMS=(2 2 5)
M  V30 END COLLECTION
M  V30 END CTAB
M  END
>  <level_0>
1986

>  <index>
1986

>  <NO.>
1987

>  <Name>
cefpodoxime

>  <SMILES>
COCC1=C(C(=O)O)N2C(=O)[C@@H](NC(=O)/C(=N/OC)c3csc(N)n3)[C@H]2SC1

>  <logBB>


>  <Class>
-1

>  <MW>
427.06

>  <nHBAcc>
10

>  <nHBDon>
3

>  <SLogP>
-0.54

>  <TopoPSA>
156.44

>  <MMFF94 Energy>
33.91

$$$$
COCCCC(=O)OC(C)OC(=O)C1=C(COC(N)=O)CS[C@@H]2[C@H](NC(=O)/C(=N/OC)c3ccco3)C(=O)N12
Actelion Java MolfileCreator 2.0

  0  0  0  0  0  0              0 V3000
M  V30 BEGIN CTAB
M  V30 COUNTS 67 69 0 0 0
M  V30 BEGIN ATOM
M  V30 1 S 1.2066 1.7701 -2.9783 0
M  V30 2 C 0.3756 0.3059 -2.3037 0 CFG=1
M  V30 3 C 2.6124 1.6376 -1.8229 0
M  V30 4 N 0.0838 0.568 -0.9168 0
M  V30 5 C -1.1636 0.1811 -2.5227 0 CFG=1
M  V30 6 C 2.2016 1.4551 -0.3735 0
M  V30 7 C 0.9882 0.9891 0.0028 0
M  V30 8 C -1.2392 0.3104 -0.9545 0
M  V30 9 N -1.8251 1.2714 -3.2828 0
M  V30 10 C 3.2776 1.8814 0.6048 0
M  V30 11 C 0.5809 0.9712 1.4385 0
M  V30 12 O -2.0828 0.2961 -0.0913 0
M  V30 13 C -3.0935 1.1346 -3.8058 0
M  V30 14 O 4.462 1.1336 0.2955 0
M  V30 15 O 0.6139 1.9477 2.1707 0
M  V30 16 O 0.2367 -0.2935 1.7746 0
M  V30 17 O -3.7794 0.1277 -3.7216 0
M  V30 18 C -3.6069 2.3938 -4.504 0
M  V30 19 C 5.5563 1.548 0.9712 0
M  V30 20 C -0.0977 -0.468 3.1529 0
M  V30 21 N -3.5669 3.489 -3.7963 0
M  V30 22 C -4.0356 2.2154 -5.8713 0
M  V30 23 O 5.6186 2.4901 1.7428 0
M  V30 24 N 6.6118 0.7627 0.6652 0
M  V30 25 O 0.1325 -1.8294 3.55 0
M  V30 26 C -1.5851 -0.1993 3.3433 0
M  V30 27 O -3.9891 4.6173 -4.5101 0
M  V30 28 O -3.5695 1.1216 -6.5581 0
M  V30 29 C -4.8549 2.948 -6.7138 0
M  V30 30 C 1.4425 -2.1792 3.6143 0
M  V30 31 C -3.9596 5.7405 -3.6361 0
M  V30 32 C -4.0967 1.1613 -7.8066 0
M  V30 33 C -4.8947 2.268 -7.9552 0
M  V30 34 O 2.3919 -1.4426 3.3813 0
M  V30 35 C 1.5842 -3.611 4.0544 0
M  V30 36 C 1.5556 -3.7003 5.5763 0
M  V30 37 C 1.8305 -5.1146 6.0707 0
M  V30 38 O 0.8276 -5.9899 5.5613 0
M  V30 39 C 1.0181 -7.3252 6.0105 0
M  V30 40 H 0.9159 -0.6356 -2.458 0
M  V30 41 H 3.2525 0.806 -2.1367 0
M  V30 42 H 3.1867 2.5633 -1.9353 0
M  V30 43 H -1.4602 -0.8098 -2.8856 0
M  V30 44 H -1.382 2.1838 -3.3644 0
M  V30 45 H 3.4616 2.9565 0.4864 0
M  V30 46 H 3.0183 1.6776 1.6469 0
M  V30 47 H 0.4821 0.1923 3.8119 0
M  V30 48 H 7.5 0.9476 1.1064 0
M  V30 49 H 6.5003 -0.0182 0.0387 0
M  V30 50 H -1.8833 -0.376 4.3817 0
M  V30 51 H -2.1805 -0.8701 2.7136 0
M  V30 52 H -1.845 0.8265 3.0656 0
M  V30 53 H -5.375 3.861 -6.4589 0
M  V30 54 H -2.9413 5.9116 -3.2739 0
M  V30 55 H -4.6393 5.5822 -2.7931 0
M  V30 56 H -4.2886 6.621 -4.1941 0
M  V30 57 H -3.8167 0.3456 -8.4586 0
M  V30 58 H -5.4412 2.5483 -8.8446 0
M  V30 59 H 2.5317 -3.9926 3.6565 0
M  V30 60 H 0.7891 -4.208 3.5937 0
M  V30 61 H 0.5698 -3.3752 5.932 0
M  V30 62 H 2.2946 -3.0149 6.0081 0
M  V30 63 H 2.8186 -5.4494 5.7346 0
M  V30 64 H 1.8068 -5.1293 7.1663 0
M  V30 65 H 0.2244 -7.9469 5.588 0
M  V30 66 H 0.9574 -7.3744 7.102 0
M  V30 67 H 1.9835 -7.7099 5.6685 0
M  V30 END ATOM
M  V30 BEGIN BOND
M  V30 1 1 1 2
M  V30 2 1 1 3
M  V30 3 1 2 4
M  V30 4 1 2 5
M  V30 5 1 3 6
M  V30 6 1 4 7
M  V30 7 1 4 8
M  V30 8 1 5 9
M  V30 9 1 6 10
M  V30 10 1 7 11
M  V30 11 2 8 12
M  V30 12 1 9 13
M  V30 13 1 10 14
M  V30 14 2 11 15
M  V30 15 1 11 16
M  V30 16 2 13 17
M  V30 17 1 13 18
M  V30 18 1 14 19
M  V30 19 1 16 20
M  V30 20 2 18 21
M  V30 21 1 18 22
M  V30 22 2 19 23
M  V30 23 1 19 24
M  V30 24 1 20 25
M  V30 25 1 20 26
M  V30 26 1 21 27
M  V30 27 1 22 28
M  V30 28 2 22 29
M  V30 29 1 25 30
M  V30 30 1 27 31
M  V30 31 1 28 32
M  V30 32 1 29 33
M  V30 33 2 30 34
M  V30 34 1 30 35
M  V30 35 1 35 36
M  V30 36 1 36 37
M  V30 37 1 37 38
M  V30 38 1 38 39
M  V30 39 1 5 8
M  V30 40 2 6 7
M  V30 41 2 32 33
M  V30 42 1 2 40
M  V30 43 1 3 41
M  V30 44 1 3 42
M  V30 45 1 5 43
M  V30 46 1 9 44
M  V30 47 1 10 45
M  V30 48 1 10 46
M  V30 49 1 20 47
M  V30 50 1 24 48
M  V30 51 1 24 49
M  V30 52 1 26 50
M  V30 53 1 26 51
M  V30 54 1 26 52
M  V30 55 1 29 53
M  V30 56 1 31 54
M  V30 57 1 31 55
M  V30 58 1 31 56
M  V30 59 1 32 57
M  V30 60 1 33 58
M  V30 61 1 35 59
M  V30 62 1 35 60
M  V30 63 1 36 61
M  V30 64 1 36 62
M  V30 65 1 37 63
M  V30 66 1 37 64
M  V30 67 1 39 65
M  V30 68 1 39 66
M  V30 69 1 39 67
M  V30 END BOND
M  V30 BEGIN COLLECTION
M  V30 MDLV30/STEABS ATOMS=(2 2 5)
M  V30 END COLLECTION
M  V30 END CTAB
M  END
>  <level_0>
1989

>  <index>
1989

>  <NO.>
1990

>  <Name>
cefuroxime-pivoxetil

>  <SMILES>
COCCCC(=O)OC(C)OC(=O)C1=C(COC(N)=O)CS[C@@H]2[C@H](NC(=O)/C(=N/OC)c3ccco3)C(=O)N12

>  <logBB>


>  <Class>
-1

>  <MW>
568.15

>  <nHBAcc>
13

>  <nHBDon>
2

>  <SLogP>
0.24

>  <TopoPSA>
198.29

>  <MMFF94 Energy>
-24.143

$$$$
COCc1c(C(=O)OC(C)C)ncc2[nH]c3cccc(Oc4ccc(Cl)cc4)c3c12
Actelion Java MolfileCreator 2.0

  0  0  0  0  0  0              0 V3000
M  V30 BEGIN CTAB
M  V30 COUNTS 51 54 0 0 0
M  V30 BEGIN ATOM
M  V30 1 Cl -3.0618 5.1608 -4.8377 0
M  V30 2 C -2.8329 3.8927 -3.6977 0
M  V30 3 C -3.0493 2.5697 -4.0824 0
M  V30 4 C -2.4251 4.1957 -2.3985 0
M  V30 5 C -2.8627 1.5411 -3.1574 0
M  V30 6 C -2.2381 3.1675 -1.4723 0
M  V30 7 C -2.4761 1.8428 -1.8505 0
M  V30 8 O -2.2699 0.7761 -1.0028 0
M  V30 9 C -2.7609 0.8809 0.2874 0
M  V30 10 C -1.9671 0.4948 1.4043 0
M  V30 11 C -4.1112 1.2455 0.4721 0
M  V30 12 C -0.5994 0.0373 1.6295 0
M  V30 13 C -2.6029 0.5128 2.6528 0
M  V30 14 C -4.6789 1.2791 1.7379 0
M  V30 15 C 0.5716 -0.1595 0.8371 0
M  V30 16 C -0.5162 -0.2824 2.9897 0
M  V30 17 N -1.7052 0.0547 3.5788 0
M  V30 18 C -3.9314 0.9127 2.8519 0
M  V30 19 C 1.6497 -0.7821 1.4996 0
M  V30 20 C 0.6987 0.206 -0.6125 0
M  V30 21 C 0.606 -0.8403 3.5787 0
M  V30 22 N 1.6773 -1.1083 2.8218 0
M  V30 23 C 2.9117 -1.136 0.7713 0
M  V30 24 O 0.4579 -0.9589 -1.3921 0
M  V30 25 O 3.5258 -0.3933 0.0216 0
M  V30 26 O 3.2521 -2.4144 1.0869 0
M  V30 27 C 0.6967 -0.7185 -2.7716 0
M  V30 28 C 4.4528 -2.9188 0.4792 0
M  V30 29 C 5.6605 -2.4956 1.3075 0
M  V30 30 C 4.3321 -4.4371 0.4378 0
M  V30 31 H -3.3585 2.3337 -5.097 0
M  V30 32 H -2.2461 5.2262 -2.1033 0
M  V30 33 H -3.0212 0.5068 -3.4515 0
M  V30 34 H -1.9021 3.406 -0.4668 0
M  V30 35 H -4.7321 1.4913 -0.3863 0
M  V30 36 H -5.72 1.5701 1.8565 0
M  V30 37 H -1.9117 -0.0614 4.5606 0
M  V30 38 H -4.3806 0.9134 3.8408 0
M  V30 39 H 0.0011 0.9992 -0.8731 0
M  V30 40 H 1.6799 0.6327 -0.8373 0
M  V30 41 H 0.6692 -1.0954 4.6299 0
M  V30 42 H 0.464 -1.6319 -3.3253 0
M  V30 43 H 1.7487 -0.4682 -2.939 0
M  V30 44 H 0.0549 0.0868 -3.1402 0
M  V30 45 H 4.5469 -2.5504 -0.5495 0
M  V30 46 H 6.587 -2.9069 0.8956 0
M  V30 47 H 5.7512 -1.4049 1.3361 0
M  V30 48 H 5.5588 -2.8287 2.3463 0
M  V30 49 H 5.2166 -4.8947 -0.0153 0
M  V30 50 H 3.4506 -4.7327 -0.1414 0
M  V30 51 H 4.199 -4.8493 1.4443 0
M  V30 END ATOM
M  V30 BEGIN BOND
M  V30 1 1 1 2
M  V30 2 2 2 3
M  V30 3 1 2 4
M  V30 4 1 3 5
M  V30 5 2 4 6
M  V30 6 2 5 7
M  V30 7 1 7 8
M  V30 8 1 8 9
M  V30 9 2 9 10
M  V30 10 1 9 11
M  V30 11 1 10 12
M  V30 12 1 10 13
M  V30 13 2 11 14
M  V30 14 2 12 15
M  V30 15 1 12 16
M  V30 16 1 13 17
M  V30 17 2 13 18
M  V30 18 1 15 19
M  V30 19 1 15 20
M  V30 20 2 16 21
M  V30 21 2 19 22
M  V30 22 1 19 23
M  V30 23 1 20 24
M  V30 24 2 23 25
M  V30 25 1 23 26
M  V30 26 1 24 27
M  V30 27 1 26 28
M  V30 28 1 28 29
M  V30 29 1 28 30
M  V30 30 1 6 7
M  V30 31 1 14 18
M  V30 32 1 16 17
M  V30 33 1 21 22
M  V30 34 1 3 31
M  V30 35 1 4 32
M  V30 36 1 5 33
M  V30 37 1 6 34
M  V30 38 1 11 35
M  V30 39 1 14 36
M  V30 40 1 17 37
M  V30 41 1 18 38
M  V30 42 1 20 39
M  V30 43 1 20 40
M  V30 44 1 21 41
M  V30 45 1 27 42
M  V30 46 1 27 43
M  V30 47 1 27 44
M  V30 48 1 28 45
M  V30 49 1 29 46
M  V30 50 1 29 47
M  V30 51 1 29 48
M  V30 52 1 30 49
M  V30 53 1 30 50
M  V30 54 1 30 51
M  V30 END BOND
M  V30 END CTAB
M  END
>  <level_0>
1996

>  <index>
1996

>  <NO.>
1997

>  <Name>
gedocarnil

>  <SMILES>
COCc1c(C(=O)OC(C)C)ncc2[nH]c3cccc(Oc4ccc(Cl)cc4)c3c12

>  <logBB>


>  <Class>
1

>  <MW>
424.12

>  <nHBAcc>
5

>  <nHBDon>
1

>  <SLogP>
5.87

>  <TopoPSA>
73.44

>  <MMFF94 Energy>
97.142

$$$$
CO[C@@H]1[C@@H](OC(N)=O)[C@@H](O)[C@H](Oc2ccc3c(O)c(NC(=O)c4ccc(O)c(CC=C(C)C)c4)c(=O)oc3c2C)OC1(C)C
Actelion Java MolfileCreator 2.0

  0  0  0  0  0  0              0 V3000
M  V30 BEGIN CTAB
M  V30 COUNTS 80 83 0 0 0
M  V30 BEGIN ATOM
M  V30 1 O 2.9464 -2.6275 1.4325 0
M  V30 2 C 1.9632 -1.9357 1.1616 0
M  V30 3 O 0.7069 -2.4874 1.0257 0
M  V30 4 C 2.1336 -0.4596 0.9705 0
M  V30 5 C -0.4194 -1.6974 0.7317 0
M  V30 6 N 3.4597 -0.0606 1.1291 0
M  V30 7 C 1.052 0.2928 0.6892 0
M  V30 8 C -0.2773 -0.3224 0.5716 0
M  V30 9 C -1.6616 -2.351 0.6196 0
M  V30 10 C 4.0497 1.1758 1.0226 0
M  V30 11 O 1.047 1.6558 0.4866 0
M  V30 12 C -1.4304 0.4242 0.3107 0
M  V30 13 C -2.8073 -1.5769 0.3627 0
M  V30 14 C -1.77 -3.8368 0.8381 0
M  V30 15 O 3.4667 2.2004 0.6837 0
M  V30 16 C 5.5112 1.2328 1.3132 0
M  V30 17 C -2.6827 -0.1935 0.215 0
M  V30 18 O -3.9931 -2.2596 0.3041 0
M  V30 19 C 6.2821 2.2013 0.6509 0
M  V30 20 C 6.1198 0.3807 2.2408 0
M  V30 21 C -5.1372 -1.5951 -0.2675 0 CFG=2
M  V30 22 C 7.6654 2.314 0.8822 0
M  V30 23 C 7.4923 0.4778 2.4721 0
M  V30 24 O -5.7114 -0.6862 0.6692 0
M  V30 25 C -6.1339 -2.7127 -0.6213 0 CFG=2
M  V30 26 C 8.2549 1.4245 1.7894 0
M  V30 27 C 8.4469 3.3919 0.1633 0
M  V30 28 C -6.9314 -0.0505 0.2508 0
M  V30 29 O -5.557 -3.6442 -1.5546 0
M  V30 30 C -7.4252 -2.1203 -1.1983 0 CFG=1
M  V30 31 O 9.5912 1.4282 2.069 0
M  V30 32 C 9.305 2.8371 -0.9421 0
M  V30 33 C -8.0085 -1.0871 -0.2131 0 CFG=1
M  V30 34 C -7.4328 0.7105 1.4936 0
M  V30 35 C -6.6241 1.0017 -0.83 0
M  V30 36 O -7.1446 -1.5278 -2.486 0
M  V30 37 C 10.6299 2.9978 -1.1337 0
M  V30 38 O -8.5083 -1.795 0.9404 0
M  V30 39 C -8.2196 -1.3465 -3.2831 0
M  V30 40 C 11.3138 2.3488 -2.311 0
M  V30 41 C 11.5515 3.807 -0.2624 0
M  V30 42 C -9.8553 -2.2288 0.7821 0
M  V30 43 O -9.3829 -1.5598 -2.985 0
M  V30 44 N -7.8271 -0.8644 -4.4808 0
M  V30 45 H 4.0734 -0.8521 1.3266 0
M  V30 46 H 1.965 1.999 0.5471 0
M  V30 47 H -1.3716 1.5051 0.1941 0
M  V30 48 H -2.0141 -4.0416 1.8851 0
M  V30 49 H -0.8381 -4.353 0.5866 0
M  V30 50 H -2.5419 -4.278 0.199 0
M  V30 51 H -3.5452 0.4444 0.05 0
M  V30 52 H 5.7946 2.8776 -0.051 0
M  V30 53 H 5.5493 -0.3464 2.8116 0
M  V30 54 H -4.8206 -1.0841 -1.1853 0
M  V30 55 H 7.9727 -0.1843 3.1887 0
M  V30 56 H -6.3714 -3.2858 0.2839 0
M  V30 57 H 9.017 3.955 0.908 0
M  V30 58 H 7.7541 4.1181 -0.2808 0
M  V30 59 H -4.7023 -3.9116 -1.166 0
M  V30 60 H -8.1134 -2.9603 -1.3562 0
M  V30 61 H 10.0577 1.9035 1.3615 0
M  V30 62 H 8.7518 2.2384 -1.6677 0
M  V30 63 H -8.8328 -0.5239 -0.6684 0
M  V30 64 H -7.5465 0.042 2.3545 0
M  V30 65 H -8.391 1.2052 1.3034 0
M  V30 66 H -6.7067 1.4716 1.8039 0
M  V30 67 H -6.1703 0.5749 -1.7265 0
M  V30 68 H -5.8995 1.7354 -0.4567 0
M  V30 69 H -7.5301 1.5385 -1.131 0
M  V30 70 H 11.7688 3.1107 -2.9524 0
M  V30 71 H 10.6203 1.7667 -2.9269 0
M  V30 72 H 12.0998 1.6699 -1.9643 0
M  V30 73 H 11.0441 4.3077 0.5642 0
M  V30 74 H 12.3231 3.1604 0.1686 0
M  V30 75 H 12.045 4.5833 -0.8568 0
M  V30 76 H -9.9571 -2.9033 -0.0718 0
M  V30 77 H -10.1477 -2.7683 1.687 0
M  V30 78 H -10.5195 -1.3673 0.6632 0
M  V30 79 H -8.5211 -0.6876 -5.1913 0
M  V30 80 H -6.8466 -0.7365 -4.6774 0
M  V30 END ATOM
M  V30 BEGIN BOND
M  V30 1 2 1 2
M  V30 2 1 2 3
M  V30 3 1 2 4
M  V30 4 1 3 5
M  V30 5 1 4 6
M  V30 6 2 4 7
M  V30 7 2 5 8
M  V30 8 1 5 9
M  V30 9 1 6 10
M  V30 10 1 7 11
M  V30 11 1 8 12
M  V30 12 2 9 13
M  V30 13 1 9 14
M  V30 14 2 10 15
M  V30 15 1 10 16
M  V30 16 2 12 17
M  V30 17 1 13 18
M  V30 18 2 16 19
M  V30 19 1 16 20
M  V30 20 1 18 21
M  V30 21 1 19 22
M  V30 22 2 20 23
M  V30 23 1 21 24
M  V30 24 1 21 25
M  V30 25 2 22 26
M  V30 26 1 22 27
M  V30 27 1 24 28
M  V30 28 1 25 29
M  V30 29 1 25 30
M  V30 30 1 26 31
M  V30 31 1 27 32
M  V30 32 1 28 33
M  V30 33 1 28 34
M  V30 34 1 28 35
M  V30 35 1 30 36
M  V30 36 2 32 37
M  V30 37 1 33 38
M  V30 38 1 36 39
M  V30 39 1 37 40
M  V30 40 1 37 41
M  V30 41 1 38 42
M  V30 42 2 39 43
M  V30 43 1 39 44
M  V30 44 1 7 8
M  V30 45 1 13 17
M  V30 46 1 23 26
M  V30 47 1 30 33
M  V30 48 1 6 45
M  V30 49 1 11 46
M  V30 50 1 12 47
M  V30 51 1 14 48
M  V30 52 1 14 49
M  V30 53 1 14 50
M  V30 54 1 17 51
M  V30 55 1 19 52
M  V30 56 1 20 53
M  V30 57 1 21 54
M  V30 58 1 23 55
M  V30 59 1 25 56
M  V30 60 1 27 57
M  V30 61 1 27 58
M  V30 62 1 29 59
M  V30 63 1 30 60
M  V30 64 1 31 61
M  V30 65 1 32 62
M  V30 66 1 33 63
M  V30 67 1 34 64
M  V30 68 1 34 65
M  V30 69 1 34 66
M  V30 70 1 35 67
M  V30 71 1 35 68
M  V30 72 1 35 69
M  V30 73 1 40 70
M  V30 74 1 40 71
M  V30 75 1 40 72
M  V30 76 1 41 73
M  V30 77 1 41 74
M  V30 78 1 41 75
M  V30 79 1 42 76
M  V30 80 1 42 77
M  V30 81 1 42 78
M  V30 82 1 44 79
M  V30 83 1 44 80
M  V30 END BOND
M  V30 BEGIN COLLECTION
M  V30 MDLV30/STEABS ATOMS=(4 21 25 30 33)
M  V30 END COLLECTION
M  V30 END CTAB
M  END
>  <level_0>
2000

>  <index>
2000

>  <NO.>
2001

>  <Name>
novobiocin sodium

>  <SMILES>
CO[C@@H]1[C@@H](OC(N)=O)[C@@H](O)[C@H](Oc2ccc3c(O)c(NC(=O)c4ccc(O)c(CC=C(C)C)c4)c(=O)oc3c2C)OC1(C)C

>  <logBB>


>  <Class>
-1

>  <MW>
612.23

>  <nHBAcc>
11

>  <nHBDon>
5

>  <SLogP>
3.63

>  <TopoPSA>
200.01

>  <MMFF94 Energy>
100.08

$$$$
CO[C@@H]1[C@@H](O[C@@H]2O[C@H](C)[C@@H](O[C@H]3C[C@@](C)(O)[C@@H](OC(=O)CC(C)C)[C@H](C)O3)[C@H](N(C)C)[C@H]2O)[C@@H](CC=O)C[C@@H](C)[C@@H](O)/C=C/C=C/C[C@@H](C)OC(=O)C[C@H]1OC(C)=O
Actelion Java MolfileCreator 2.0

  0  0  0  0  0  0              0 V3000
M  V30 BEGIN CTAB
M  V30 COUNTS 127 129 0 0 0
M  V30 BEGIN ATOM
M  V30 1 O 2.4547 -3.089 3.5649 0
M  V30 2 C 1.8141 -4.1314 3.5456 0
M  V30 3 O 2.167 -5.2909 4.1653 0
M  V30 4 C 0.4901 -4.3031 2.8492 0
M  V30 5 C 3.325 -5.226 5.0278 0 CFG=1
M  V30 6 C 0.0259 -2.9948 2.1931 0 CFG=1
M  V30 7 C 2.8646 -5.099 6.4927 0
M  V30 8 C 4.1083 -6.5177 4.8215 0
M  V30 9 O -1.1274 -3.3254 1.3808 0
M  V30 10 C -0.348 -1.9006 3.2554 0 CFG=2
M  V30 11 C 2.05 -3.8534 6.7266 0
M  V30 12 C -1.0384 -3.0957 0.0433 0
M  V30 13 O -1.717 -1.4686 3.1176 0
M  V30 14 C 0.5891 -0.6418 3.1666 0 CFG=1
M  V30 15 C 0.779 -3.8717 7.1571 0
M  V30 16 O -0.0244 -2.7534 -0.5496 0
M  V30 17 C -2.3559 -3.3629 -0.6162 0
M  V30 18 C -2.6306 -2.2777 3.8504 0
M  V30 19 O -0.0116 0.42 2.413 0
M  V30 20 C 0.9277 -0.0694 4.583 0 CFG=2
M  V30 21 C -0.0815 -2.7167 7.2636 0
M  V30 22 C 0.1794 0.3311 1.0018 0 CFG=2
M  V30 23 C -0.2841 0.6322 5.2478 0
M  V30 24 C 2.1133 0.9152 4.4703 0
M  V30 25 C 0.3045 -1.4736 7.593 0
M  V30 26 O 1.2623 1.1742 0.6429 0
M  V30 27 C -1.1321 0.7662 0.3311 0 CFG=2
M  V30 28 C -0.1369 0.9071 6.7715 0 CFG=2
M  V30 29 C 3.4228 0.1667 4.4488 0
M  V30 30 C -0.5905 -0.2664 7.6831 0 CFG=1
M  V30 31 C 1.5184 1.1375 -0.7654 0 CFG=1
M  V30 32 O -2.1586 -0.1957 0.655 0
M  V30 33 C -0.9507 0.8782 -1.209 0 CFG=2
M  V30 34 C -0.9445 2.1693 7.1187 0
M  V30 35 O 4.1928 0.14 5.4054 0
M  V30 36 O -1.9356 -0.6413 7.3961 0
M  V30 37 C 0.3182 1.7459 -1.5526 0 CFG=2
M  V30 38 C 2.8512 1.8542 -0.9418 0
M  V30 39 N -2.2529 1.2819 -1.8113 0
M  V30 40 O 0.5638 1.7225 -2.9749 0
M  V30 41 C -2.5095 0.6205 -3.0829 0
M  V30 42 C -2.5032 2.7116 -1.8548 0
M  V30 43 C 1.1953 2.9014 -3.4823 0 CFG=2
M  V30 44 O 0.2627 3.8763 -3.9454 0
M  V30 45 C 2.1898 2.5329 -4.5867 0
M  V30 46 C -0.5103 3.4546 -5.0763 0 CFG=2
M  V30 47 C 1.499 2.0709 -5.8748 0 CFG=2
M  V30 48 C 0.3956 3.0857 -6.2658 0 CFG=1
M  V30 49 C -1.453 4.6021 -5.4322 0
M  V30 50 O 0.9921 0.748 -5.6816 0
M  V30 51 C 2.5317 1.9392 -7.0021 0
M  V30 52 O -0.2972 2.711 -7.48 0
M  V30 53 C -1.2254 1.7184 -7.4581 0
M  V30 54 O -1.644 1.1451 -6.4633 0
M  V30 55 C -1.7146 1.4357 -8.8568 0
M  V30 56 C -2.6712 2.5211 -9.3645 0
M  V30 57 C -2.9273 2.3352 -10.8604 0
M  V30 58 C -3.9981 2.5011 -8.6023 0
M  V30 59 H 0.6019 -5.0779 2.082 0
M  V30 60 H -0.2587 -4.6516 3.5695 0
M  V30 61 H 3.9784 -4.3861 4.7612 0
M  V30 62 H 0.8524 -2.6419 1.5682 0
M  V30 63 H 3.7383 -5.0747 7.1542 0
M  V30 64 H 2.2744 -5.9829 6.7661 0
M  V30 65 H 3.4894 -7.3939 5.0441 0
M  V30 66 H 4.4189 -6.6101 3.7753 0
M  V30 67 H 5.0005 -6.5471 5.4542 0
M  V30 68 H -0.2121 -2.3337 4.2534 0
M  V30 69 H 2.5368 -2.9112 6.4792 0
M  V30 70 H 1.5407 -0.9199 2.7013 0
M  V30 71 H 0.2955 -4.8229 7.3746 0
M  V30 72 H -2.541 -4.4389 -0.6467 0
M  V30 73 H -3.1566 -2.8525 -0.0743 0
M  V30 74 H -2.3347 -2.971 -1.6369 0
M  V30 75 H -2.4432 -2.1829 4.9234 0
M  V30 76 H -3.643 -1.9213 3.6433 0
M  V30 77 H -2.5617 -3.3269 3.5515 0
M  V30 78 H 1.2491 -0.9102 5.2039 0
M  V30 79 H -1.135 -2.9124 7.0687 0
M  V30 80 H 0.4174 -0.6933 0.7189 0
M  V30 81 H -1.1963 0.0524 5.0848 0
M  V30 82 H -0.4432 1.5848 4.7244 0
M  V30 83 H 2.0557 1.5338 3.5688 0
M  V30 84 H 2.1558 1.6023 5.3209 0
M  V30 85 H 1.3506 -1.2838 7.8256 0
M  V30 86 H -1.4514 1.7299 0.7463 0
M  V30 87 H 0.909 1.1312 7.0103 0
M  V30 88 H 3.6519 -0.3862 3.5226 0
M  V30 89 H -0.5658 0.0628 8.7298 0
M  V30 90 H 1.6752 0.0964 -1.0791 0
M  V30 91 H -2.1036 -0.3384 1.6263 0
M  V30 92 H -0.7501 -0.1427 -1.5658 0
M  V30 93 H -0.8959 2.3828 8.1917 0
M  V30 94 H -1.9973 2.0687 6.8357 0
M  V30 95 H -0.5393 3.0405 6.5924 0
M  V30 96 H -2.5059 0.089 7.6871 0
M  V30 97 H 0.1387 2.7739 -1.2106 0
M  V30 98 H 2.7662 2.9146 -0.6814 0
M  V30 99 H 3.6006 1.4312 -0.2623 0
M  V30 100 H 3.2392 1.7569 -1.9566 0
M  V30 101 H -1.7256 0.8043 -3.8168 0
M  V30 102 H -2.5826 -0.463 -2.9371 0
M  V30 103 H -3.4673 0.938 -3.5095 0
M  V30 104 H -1.849 3.2355 -2.5518 0
M  V30 105 H -2.3822 3.1651 -0.8656 0
M  V30 106 H -3.5382 2.9092 -2.1559 0
M  V30 107 H 1.7601 3.3981 -2.6898 0
M  V30 108 H 2.8577 1.7419 -4.227 0
M  V30 109 H 2.7955 3.4208 -4.8091 0
M  V30 110 H -1.1302 2.6176 -4.7636 0
M  V30 111 H 0.9239 4.0118 -6.5353 0
M  V30 112 H -2.1187 4.3396 -6.2591 0
M  V30 113 H -2.0678 4.8725 -4.5668 0
M  V30 114 H -0.8892 5.5005 -5.7065 0
M  V30 115 H 0.2858 0.7765 -5.0056 0
M  V30 116 H 2.0734 1.537 -7.9125 0
M  V30 117 H 2.9949 2.9015 -7.2431 0
M  V30 118 H 3.3249 1.2363 -6.7217 0
M  V30 119 H -2.1968 0.4508 -8.8603 0
M  V30 120 H -0.8347 1.3476 -9.506 0
M  V30 121 H -2.213 3.5074 -9.2188 0
M  V30 122 H -1.9908 2.3917 -11.4251 0
M  V30 123 H -3.3903 1.3644 -11.0672 0
M  V30 124 H -3.5935 3.1165 -11.2414 0
M  V30 125 H -3.8465 2.699 -7.5365 0
M  V30 126 H -4.4982 1.5316 -8.6998 0
M  V30 127 H -4.6766 3.2706 -8.9859 0
M  V30 END ATOM
M  V30 BEGIN BOND
M  V30 1 2 1 2
M  V30 2 1 2 3
M  V30 3 1 2 4
M  V30 4 1 3 5
M  V30 5 1 4 6
M  V30 6 1 5 7
M  V30 7 1 5 8
M  V30 8 1 6 9
M  V30 9 1 6 10
M  V30 10 1 7 11
M  V30 11 1 9 12
M  V30 12 1 10 13
M  V30 13 1 10 14
M  V30 14 2 11 15
M  V30 15 2 12 16
M  V30 16 1 12 17
M  V30 17 1 13 18
M  V30 18 1 14 19
M  V30 19 1 14 20
M  V30 20 1 15 21
M  V30 21 1 19 22
M  V30 22 1 20 23
M  V30 23 1 20 24
M  V30 24 2 21 25
M  V30 25 1 22 26
M  V30 26 1 22 27
M  V30 27 1 23 28
M  V30 28 1 24 29
M  V30 29 1 25 30
M  V30 30 1 26 31
M  V30 31 1 27 32
M  V30 32 1 27 33
M  V30 33 1 28 34
M  V30 34 2 29 35
M  V30 35 1 30 36
M  V30 36 1 31 37
M  V30 37 1 31 38
M  V30 38 1 33 39
M  V30 39 1 37 40
M  V30 40 1 39 41
M  V30 41 1 39 42
M  V30 42 1 40 43
M  V30 43 1 43 44
M  V30 44 1 43 45
M  V30 45 1 44 46
M  V30 46 1 45 47
M  V30 47 1 46 48
M  V30 48 1 46 49
M  V30 49 1 47 50
M  V30 50 1 47 51
M  V30 51 1 48 52
M  V30 52 1 52 53
M  V30 53 2 53 54
M  V30 54 1 53 55
M  V30 55 1 55 56
M  V30 56 1 56 57
M  V30 57 1 56 58
M  V30 58 1 28 30
M  V30 59 1 33 37
M  V30 60 1 47 48
M  V30 61 1 4 59
M  V30 62 1 4 60
M  V30 63 1 5 61
M  V30 64 1 6 62
M  V30 65 1 7 63
M  V30 66 1 7 64
M  V30 67 1 8 65
M  V30 68 1 8 66
M  V30 69 1 8 67
M  V30 70 1 10 68
M  V30 71 1 11 69
M  V30 72 1 14 70
M  V30 73 1 15 71
M  V30 74 1 17 72
M  V30 75 1 17 73
M  V30 76 1 17 74
M  V30 77 1 18 75
M  V30 78 1 18 76
M  V30 79 1 18 77
M  V30 80 1 20 78
M  V30 81 1 21 79
M  V30 82 1 22 80
M  V30 83 1 23 81
M  V30 84 1 23 82
M  V30 85 1 24 83
M  V30 86 1 24 84
M  V30 87 1 25 85
M  V30 88 1 27 86
M  V30 89 1 28 87
M  V30 90 1 29 88
M  V30 91 1 30 89
M  V30 92 1 31 90
M  V30 93 1 32 91
M  V30 94 1 33 92
M  V30 95 1 34 93
M  V30 96 1 34 94
M  V30 97 1 34 95
M  V30 98 1 36 96
M  V30 99 1 37 97
M  V30 100 1 38 98
M  V30 101 1 38 99
M  V30 102 1 38 100
M  V30 103 1 41 101
M  V30 104 1 41 102
M  V30 105 1 41 103
M  V30 106 1 42 104
M  V30 107 1 42 105
M  V30 108 1 42 106
M  V30 109 1 43 107
M  V30 110 1 45 108
M  V30 111 1 45 109
M  V30 112 1 46 110
M  V30 113 1 48 111
M  V30 114 1 49 112
M  V30 115 1 49 113
M  V30 116 1 49 114
M  V30 117 1 50 115
M  V30 118 1 51 116
M  V30 119 1 51 117
M  V30 120 1 51 118
M  V30 121 1 55 119
M  V30 122 1 55 120
M  V30 123 1 56 121
M  V30 124 1 57 122
M  V30 125 1 57 123
M  V30 126 1 57 124
M  V30 127 1 58 125
M  V30 128 1 58 126
M  V30 129 1 58 127
M  V30 END BOND
M  V30 BEGIN COLLECTION
M  V30 MDLV30/STEABS ATOMS=(16 5 6 10 14 20 22 27 28 30 31 33 37 43 46 47 48)
M  V30 END COLLECTION
M  V30 END CTAB
M  END
>  <level_0>
2001

>  <index>
2001

>  <NO.>
2002

>  <Name>
josamycin

>  <SMILES>
CO[C@@H]1[C@@H](O[C@@H]2O[C@H](C)[C@@H](O[C@H]3C[C@@](C)(O)[C@@H](OC(=O)CC(C)C)[C@H](C)O3)[C@H](N(C)C)[C@H]2O)[C@@H](CC=O)C[C@@H](C)[C@@H](O)/C=C/C=C/C[C@@H](C)OC(=O)C[C@H]1OC(C)=O

>  <logBB>


>  <Class>
-1

>  <MW>
827.47

>  <nHBAcc>
16

>  <nHBDon>
3

>  <SLogP>
3.01

>  <TopoPSA>
206.05

>  <MMFF94 Energy>
164.34

$$$$
CO[C@@]1(NC(=O)CSC(F)(F)F)C(=O)N2C(C(=O)O)=C(CSc3nnnn3CCO)CO[C@@H]21
Actelion Java MolfileCreator 2.0

  0  0  0  0  0  0              0 V3000
M  V30 BEGIN CTAB
M  V30 COUNTS 50 52 0 0 0
M  V30 BEGIN ATOM
M  V30 1 S -0.9951 4.068 0.2487 0
M  V30 2 C -1.4637 3.7169 1.8729 0
M  V30 3 C -1.8766 2.7629 -0.6691 0
M  V30 4 N -2.36 2.8421 2.2633 0
M  V30 5 N -0.954 4.3434 2.9755 0
M  V30 6 C -1.1736 1.4279 -0.5618 0
M  V30 7 N -2.412 2.9435 3.6322 0
M  V30 8 N -1.571 3.8691 4.0744 0
M  V30 9 C 0.0046 5.4202 3.0762 0
M  V30 10 C -1.7318 0.2946 -0.0675 0
M  V30 11 C 0.2341 1.4014 -1.1477 0
M  V30 12 C 1.4442 4.9541 2.8881 0
M  V30 13 N -0.9641 -0.8229 0.0426 0
M  V30 14 C -3.1521 0.1676 0.3581 0
M  V30 15 O 0.7043 0.0685 -1.377 0
M  V30 16 O 1.9055 4.2827 4.053 0
M  V30 17 C -1.1914 -2.1353 -0.1562 0
M  V30 18 C 0.4452 -0.8023 -0.2577 0 CFG=2
M  V30 19 O -3.5534 -0.3996 1.3576 0
M  V30 20 O -4.0073 0.684 -0.5439 0
M  V30 21 O -2.2034 -2.7945 -0.236 0
M  V30 22 C 0.3618 -2.3811 -0.4396 0 CFG=1
M  V30 23 O 1.027 -3.1665 0.588 0
M  V30 24 N 0.6354 -2.8512 -1.8292 0
M  V30 25 C 0.508 -4.4658 0.8332 0
M  V30 26 C 1.8651 -2.6649 -2.4184 0
M  V30 27 O 2.8175 -2.153 -1.8381 0
M  V30 28 C 1.9574 -3.1593 -3.8502 0
M  V30 29 S 3.0576 -4.5909 -4.0051 0
M  V30 30 C 2.2427 -5.6738 -2.8432 0
M  V30 31 F 2.5679 -5.3889 -1.5647 0
M  V30 32 F 2.5671 -6.9672 -3.0673 0
M  V30 33 F 0.8936 -5.5764 -2.9482 0
M  V30 34 H -1.9076 3.0611 -1.7232 0
M  V30 35 H -2.9119 2.7544 -0.3249 0
M  V30 36 H -0.1246 5.8878 4.0593 0
M  V30 37 H -0.2612 6.1607 2.3144 0
M  V30 38 H 0.9451 1.9043 -0.4837 0
M  V30 39 H 0.2473 1.9086 -2.1179 0
M  V30 40 H 1.5547 4.2807 2.0331 0
M  V30 41 H 2.0913 5.8233 2.7326 0
M  V30 42 H 2.8176 3.9855 3.8873 0
M  V30 43 H 1.0542 -0.5131 0.6088 0
M  V30 44 H -4.8798 0.4696 -0.1489 0
M  V30 45 H -0.1126 -3.3061 -2.3399 0
M  V30 46 H 1.2306 -5.0168 1.4406 0
M  V30 47 H -0.4315 -4.3943 1.3876 0
M  V30 48 H 0.3499 -5.0084 -0.1027 0
M  V30 49 H 0.9702 -3.41 -4.2506 0
M  V30 50 H 2.3536 -2.3418 -4.4614 0
M  V30 END ATOM
M  V30 BEGIN BOND
M  V30 1 1 1 2
M  V30 2 1 1 3
M  V30 3 2 2 4
M  V30 4 1 2 5
M  V30 5 1 3 6
M  V30 6 1 4 7
M  V30 7 1 5 8
M  V30 8 1 5 9
M  V30 9 2 6 10
M  V30 10 1 6 11
M  V30 11 1 9 12
M  V30 12 1 10 13
M  V30 13 1 10 14
M  V30 14 1 11 15
M  V30 15 1 12 16
M  V30 16 1 13 17
M  V30 17 1 13 18
M  V30 18 2 14 19
M  V30 19 1 14 20
M  V30 20 2 17 21
M  V30 21 1 17 22
M  V30 22 1 22 23
M  V30 23 1 22 24
M  V30 24 1 23 25
M  V30 25 1 24 26
M  V30 26 2 26 27
M  V30 27 1 26 28
M  V30 28 1 28 29
M  V30 29 1 29 30
M  V30 30 1 30 31
M  V30 31 1 30 32
M  V30 32 1 30 33
M  V30 33 2 7 8
M  V30 34 1 15 18
M  V30 35 1 18 22
M  V30 36 1 3 34
M  V30 37 1 3 35
M  V30 38 1 9 36
M  V30 39 1 9 37
M  V30 40 1 11 38
M  V30 41 1 11 39
M  V30 42 1 12 40
M  V30 43 1 12 41
M  V30 44 1 16 42
M  V30 45 1 18 43
M  V30 46 1 20 44
M  V30 47 1 24 45
M  V30 48 1 25 46
M  V30 49 1 25 47
M  V30 50 1 25 48
M  V30 51 1 28 49
M  V30 52 1 28 50
M  V30 END BOND
M  V30 BEGIN COLLECTION
M  V30 MDLV30/STEABS ATOMS=(2 18 22)
M  V30 END COLLECTION
M  V30 END CTAB
M  END
>  <level_0>
2004

>  <index>
2004

>  <NO.>
2005

>  <Name>
flomoxef

>  <SMILES>
CO[C@@]1(NC(=O)CSC(F)(F)F)C(=O)N2C(C(=O)O)=C(CSc3nnnn3CCO)CO[C@@H]21

>  <logBB>


>  <Class>
-1

>  <MW>
514.06

>  <nHBAcc>
11

>  <nHBDon>
3

>  <SLogP>
-0.99

>  <TopoPSA>
169.0

>  <MMFF94 Energy>
-4.0716

$$$$
CO[C@@]1(NC(=O)CSCC#N)C(=O)N2C(C(=O)O)=C(CSc3nnnn3C)CS[C@@H]21
Actelion Java MolfileCreator 2.0

  0  0  0  0  0  0              0 V3000
M  V30 BEGIN CTAB
M  V30 COUNTS 47 49 0 0 0
M  V30 BEGIN ATOM
M  V30 1 S 2.3431 1.6732 0.5854 0
M  V30 2 C 1.491 1.2633 2.1408 0 CFG=1
M  V30 3 C 0.9942 2.7412 -0.0143 0
M  V30 4 N 0.2115 0.6673 1.8444 0
M  V30 5 C 1.8837 -0.1246 2.8351 0 CFG=2
M  V30 6 C -0.3552 2.0551 0.0155 0
M  V30 7 C -0.6752 1.1005 0.9187 0
M  V30 8 C 0.2622 -0.3285 2.7557 0
M  V30 9 O 2.4347 0.0276 4.169 0
M  V30 10 N 2.6748 -1.0166 1.9297 0
M  V30 11 C -1.3049 2.501 -1.0758 0
M  V30 12 C -1.9605 0.3654 0.8231 0
M  V30 13 O -0.6065 -1.0504 3.1806 0
M  V30 14 C 2.3453 -1.1079 5.0204 0
M  V30 15 C 2.3891 -2.3482 1.7523 0
M  V30 16 S -0.9896 1.5046 -2.5638 0
M  V30 17 O -2.1251 -0.7069 0.2714 0
M  V30 18 O -2.9478 1.0408 1.4331 0
M  V30 19 O 1.6247 -2.9802 2.4723 0
M  V30 20 C 3.0608 -2.9814 0.5512 0
M  V30 21 C -2.3527 1.9408 -3.522 0
M  V30 22 S 2.3801 -2.2995 -0.998 0
M  V30 23 N -3.0734 3.0334 -3.4176 0
M  V30 24 N -2.8656 1.1706 -4.5237 0
M  V30 25 C 0.6099 -2.7496 -0.7831 0
M  V30 26 N -4.0503 2.9285 -4.3798 0
M  V30 27 N -3.9348 1.7926 -5.0566 0
M  V30 28 C -2.4641 -0.1249 -4.9958 0
M  V30 29 C -0.1594 -2.5148 -2.0177 0
M  V30 30 N -0.7557 -2.3419 -3.0007 0
M  V30 31 H 1.4175 2.1044 2.8413 0
M  V30 32 H 1.2633 3.024 -1.037 0
M  V30 33 H 0.9566 3.6599 0.581 0
M  V30 34 H 3.2892 -0.5684 1.255 0
M  V30 35 H -2.3501 2.3901 -0.7705 0
M  V30 36 H -1.1563 3.5637 -1.299 0
M  V30 37 H 2.6832 -0.8143 6.0179 0
M  V30 38 H 2.9974 -1.9055 4.656 0
M  V30 39 H 1.3143 -1.4626 5.0941 0
M  V30 40 H -3.7205 0.4401 1.3721 0
M  V30 41 H 4.1352 -2.7762 0.5889 0
M  V30 42 H 2.9204 -4.0661 0.5751 0
M  V30 43 H 0.5479 -3.8073 -0.5089 0
M  V30 44 H 0.1911 -2.1537 0.0315 0
M  V30 45 H -2.8532 -0.8756 -4.3046 0
M  V30 46 H -2.8798 -0.2897 -5.9936 0
M  V30 47 H -1.3745 -0.17 -5.0524 0
M  V30 END ATOM
M  V30 BEGIN BOND
M  V30 1 1 1 2
M  V30 2 1 1 3
M  V30 3 1 2 4
M  V30 4 1 2 5
M  V30 5 1 3 6
M  V30 6 1 4 7
M  V30 7 1 4 8
M  V30 8 1 5 9
M  V30 9 1 5 10
M  V30 10 1 6 11
M  V30 11 1 7 12
M  V30 12 2 8 13
M  V30 13 1 9 14
M  V30 14 1 10 15
M  V30 15 1 11 16
M  V30 16 2 12 17
M  V30 17 1 12 18
M  V30 18 2 15 19
M  V30 19 1 15 20
M  V30 20 1 16 21
M  V30 21 1 20 22
M  V30 22 2 21 23
M  V30 23 1 21 24
M  V30 24 1 22 25
M  V30 25 1 23 26
M  V30 26 1 24 27
M  V30 27 1 24 28
M  V30 28 1 25 29
M  V30 29 3 29 30
M  V30 30 1 5 8
M  V30 31 2 6 7
M  V30 32 2 26 27
M  V30 33 1 2 31
M  V30 34 1 3 32
M  V30 35 1 3 33
M  V30 36 1 10 34
M  V30 37 1 11 35
M  V30 38 1 11 36
M  V30 39 1 14 37
M  V30 40 1 14 38
M  V30 41 1 14 39
M  V30 42 1 18 40
M  V30 43 1 20 41
M  V30 44 1 20 42
M  V30 45 1 25 43
M  V30 46 1 25 44
M  V30 47 1 28 45
M  V30 48 1 28 46
M  V30 49 1 28 47
M  V30 END BOND
M  V30 BEGIN COLLECTION
M  V30 MDLV30/STEABS ATOMS=(2 2 5)
M  V30 END COLLECTION
M  V30 END CTAB
M  END
>  <level_0>
2005

>  <index>
2005

>  <NO.>
2006

>  <Name>
cefmetazole

>  <SMILES>
CO[C@@]1(NC(=O)CSCC#N)C(=O)N2C(C(=O)O)=C(CSc3nnnn3C)CS[C@@H]21

>  <logBB>


>  <Class>
-1

>  <MW>
471.05

>  <nHBAcc>
11

>  <nHBDon>
2

>  <SLogP>
-0.73

>  <TopoPSA>
163.33

>  <MMFF94 Energy>
31.113

$$$$
CO[C@@]1(NC(=O)CSC[C@@H](N)C(=O)O)C(=O)N2C(C(=O)O)=C(CSc3nnnn3C)CS[C@@H]21
Actelion Java MolfileCreator 2.0

  0  0  0  0  0  0              0 V3000
M  V30 BEGIN CTAB
M  V30 COUNTS 54 56 0 0 0
M  V30 BEGIN ATOM
M  V30 1 S 0.745 1.4905 -0.6622 0
M  V30 2 C -0.3096 1.1425 0.7809 0 CFG=1
M  V30 3 C -0.2993 2.8786 -1.2136 0
M  V30 4 N -1.6004 0.7603 0.2497 0
M  V30 5 C -0.2407 -0.2874 1.4711 0 CFG=2
M  V30 6 C -1.7719 2.5152 -1.325 0
M  V30 7 C -2.3295 1.4883 -0.6377 0
M  V30 8 C -1.6807 -0.4686 0.7939 0
M  V30 9 O -0.3025 -0.2646 2.9272 0
M  V30 10 N 0.7818 -1.2327 0.9336 0
M  V30 11 C -2.5604 3.4334 -2.239 0
M  V30 12 C -3.7536 1.095 -0.841 0
M  V30 13 O -2.4975 -1.3562 0.6945 0
M  V30 14 C -0.8387 -1.4165 3.5627 0
M  V30 15 C 2.1271 -1.0593 1.188 0
M  V30 16 S -2.3681 2.9471 -3.9789 0
M  V30 17 O -4.333 0.965 -1.9029 0
M  V30 18 O -4.3847 0.945 0.3379 0
M  V30 19 O 2.5532 -0.1323 1.8697 0
M  V30 20 C 3.0116 -2.1094 0.5341 0
M  V30 21 C -1.2814 4.1452 -4.5749 0
M  V30 22 S 4.4611 -2.5684 1.5378 0
M  V30 23 N -0.7257 5.1297 -3.907 0
M  V30 24 N -0.8488 4.1999 -5.8675 0
M  V30 25 C 3.665 -3.0046 3.1369 0
M  V30 26 N 0.0625 5.7998 -4.8126 0
M  V30 27 N -0.0061 5.2382 -6.0128 0
M  V30 28 C -1.1634 3.3485 -6.9798 0
M  V30 29 C 2.6418 -4.1462 3.0488 0 CFG=1
M  V30 30 N 3.1571 -5.3424 2.337 0
M  V30 31 C 2.2369 -4.529 4.4719 0
M  V30 32 O 2.7374 -5.4079 5.1572 0
M  V30 33 O 1.248 -3.7573 4.9659 0
M  V30 34 H -0.3707 1.9674 1.5011 0
M  V30 35 H 0.1036 3.1775 -2.1836 0
M  V30 36 H -0.1775 3.7245 -0.5282 0
M  V30 37 H 0.4783 -1.9899 0.3328 0
M  V30 38 H -3.6301 3.4079 -2.0085 0
M  V30 39 H -2.2688 4.4748 -2.0642 0
M  V30 40 H -0.5846 -1.3734 4.6251 0
M  V30 41 H -0.4197 -2.3317 3.1366 0
M  V30 42 H -1.9276 -1.423 3.4652 0
M  V30 43 H -5.2772 0.623 0.0948 0
M  V30 44 H 2.4406 -3.0138 0.3039 0
M  V30 45 H 3.3676 -1.6966 -0.4152 0
M  V30 46 H 3.21 -2.1088 3.5727 0
M  V30 47 H 4.4797 -3.2889 3.8142 0
M  V30 48 H -0.6362 3.6998 -7.8709 0
M  V30 49 H -0.8437 2.3306 -6.7438 0
M  V30 50 H -2.2413 3.3844 -7.1559 0
M  V30 51 H 1.7402 -3.8215 2.5185 0
M  V30 52 H 3.8221 -5.0306 1.6247 0
M  V30 53 H 3.7199 -5.8868 2.9992 0
M  V30 54 H 1.105 -4.1128 5.8697 0
M  V30 END ATOM
M  V30 BEGIN BOND
M  V30 1 1 1 2
M  V30 2 1 1 3
M  V30 3 1 2 4
M  V30 4 1 2 5
M  V30 5 1 3 6
M  V30 6 1 4 7
M  V30 7 1 4 8
M  V30 8 1 5 9
M  V30 9 1 5 10
M  V30 10 1 6 11
M  V30 11 1 7 12
M  V30 12 2 8 13
M  V30 13 1 9 14
M  V30 14 1 10 15
M  V30 15 1 11 16
M  V30 16 2 12 17
M  V30 17 1 12 18
M  V30 18 2 15 19
M  V30 19 1 15 20
M  V30 20 1 16 21
M  V30 21 1 20 22
M  V30 22 2 21 23
M  V30 23 1 21 24
M  V30 24 1 22 25
M  V30 25 1 23 26
M  V30 26 1 24 27
M  V30 27 1 24 28
M  V30 28 1 25 29
M  V30 29 1 29 30
M  V30 30 1 29 31
M  V30 31 2 31 32
M  V30 32 1 31 33
M  V30 33 1 5 8
M  V30 34 2 6 7
M  V30 35 2 26 27
M  V30 36 1 2 34
M  V30 37 1 3 35
M  V30 38 1 3 36
M  V30 39 1 10 37
M  V30 40 1 11 38
M  V30 41 1 11 39
M  V30 42 1 14 40
M  V30 43 1 14 41
M  V30 44 1 14 42
M  V30 45 1 18 43
M  V30 46 1 20 44
M  V30 47 1 20 45
M  V30 48 1 25 46
M  V30 49 1 25 47
M  V30 50 1 28 48
M  V30 51 1 28 49
M  V30 52 1 28 50
M  V30 53 1 29 51
M  V30 54 1 30 52
M  V30 55 1 30 53
M  V30 56 1 33 54
M  V30 END BOND
M  V30 BEGIN COLLECTION
M  V30 MDLV30/STEABS ATOMS=(3 2 5 29)
M  V30 END COLLECTION
M  V30 END CTAB
M  END
>  <level_0>
2006

>  <index>
2006

>  <NO.>
2007

>  <Name>
cefminox

>  <SMILES>
CO[C@@]1(NC(=O)CSC[C@@H](N)C(=O)O)C(=O)N2C(C(=O)O)=C(CSc3nnnn3C)CS[C@@H]21

>  <logBB>


>  <Class>
-1

>  <MW>
519.07

>  <nHBAcc>
12

>  <nHBDon>
4

>  <SLogP>
-1.84

>  <TopoPSA>
202.86

>  <MMFF94 Energy>
67.11

$$$$
CO[C@@]12[C@H](COC(N)=O)C3=C(C(=O)C(C)=C(N)C3=O)N1C[C@@H]1N[C@@H]12
Actelion Java MolfileCreator 2.0

  0  0  0  0  0  0              0 V3000
M  V30 BEGIN CTAB
M  V30 COUNTS 42 45 0 0 0
M  V30 BEGIN ATOM
M  V30 1 O 1.1251 1.0447 3.2171 0
M  V30 2 C 0.2255 0.9065 2.3943 0
M  V30 3 C -1.0991 1.5841 2.557 0
M  V30 4 C 0.3888 0.0626 1.1892 0
M  V30 5 C -2.1022 1.3848 1.6781 0
M  V30 6 C -1.1793 2.4666 3.7702 0
M  V30 7 N 1.5286 -0.6405 0.8437 0
M  V30 8 C -0.5782 -0.1074 0.2872 0
M  V30 9 N -3.3555 1.945 1.7527 0
M  V30 10 C -1.9067 0.4635 0.4858 0
M  V30 11 C 1.3188 -1.389 -0.4106 0 CFG=2
M  V30 12 C 2.9058 -0.1851 1.0073 0
M  V30 13 C -0.1135 -0.9595 -0.8824 0 CFG=2
M  V30 14 O -2.846 0.2038 -0.2617 0
M  V30 15 O 1.4215 -2.8009 -0.2066 0
M  V30 16 C 2.5042 -0.9866 -1.2678 0 CFG=2
M  V30 17 C 3.4972 -0.3182 -0.3739 0 CFG=1
M  V30 18 C -0.1182 -0.1976 -2.2111 0
M  V30 19 C 0.762 -3.3176 0.9395 0
M  V30 20 N 2.9284 0.4024 -1.5142 0
M  V30 21 O -1.4666 -0.1281 -2.7004 0
M  V30 22 C -1.6172 0.541 -3.861 0
M  V30 23 O -0.7267 1.0185 -4.544 0
M  V30 24 N -2.9286 0.6152 -4.1714 0
M  V30 25 H -0.4099 3.2451 3.7257 0
M  V30 26 H -1.0245 1.8772 4.6805 0
M  V30 27 H -2.1417 2.974 3.8742 0
M  V30 28 H -4.0204 1.6808 1.0264 0
M  V30 29 H -3.6357 2.5674 2.4959 0
M  V30 30 H 3.4297 -0.8365 1.7136 0
M  V30 31 H 2.9742 0.8518 1.3513 0
M  V30 32 H -0.7734 -1.8323 -0.9634 0
M  V30 33 H 2.8257 -1.7383 -1.9743 0
M  V30 34 H 4.5415 -0.5879 -0.4033 0
M  V30 35 H 0.2687 0.8211 -2.0918 0
M  V30 36 H 0.4752 -0.7382 -2.9571 0
M  V30 37 H 0.8392 -4.4082 0.9066 0
M  V30 38 H -0.2992 -3.0561 0.9502 0
M  V30 39 H 1.2494 -2.9793 1.8584 0
M  V30 40 H 3.5975 0.4427 -2.2857 0
M  V30 41 H -3.2161 1.0955 -5.0089 0
M  V30 42 H -3.605 0.2281 -3.5299 0
M  V30 END ATOM
M  V30 BEGIN BOND
M  V30 1 2 1 2
M  V30 2 1 2 3
M  V30 3 1 2 4
M  V30 4 2 3 5
M  V30 5 1 3 6
M  V30 6 1 4 7
M  V30 7 2 4 8
M  V30 8 1 5 9
M  V30 9 1 5 10
M  V30 10 1 7 11
M  V30 11 1 7 12
M  V30 12 1 8 13
M  V30 13 2 10 14
M  V30 14 1 11 15
M  V30 15 1 11 16
M  V30 16 1 12 17
M  V30 17 1 13 18
M  V30 18 1 15 19
M  V30 19 1 16 20
M  V30 20 1 18 21
M  V30 21 1 21 22
M  V30 22 2 22 23
M  V30 23 1 22 24
M  V30 24 1 8 10
M  V30 25 1 11 13
M  V30 26 1 16 17
M  V30 27 1 17 20
M  V30 28 1 6 25
M  V30 29 1 6 26
M  V30 30 1 6 27
M  V30 31 1 9 28
M  V30 32 1 9 29
M  V30 33 1 12 30
M  V30 34 1 12 31
M  V30 35 1 13 32
M  V30 36 1 16 33
M  V30 37 1 17 34
M  V30 38 1 18 35
M  V30 39 1 18 36
M  V30 40 1 19 37
M  V30 41 1 19 38
M  V30 42 1 19 39
M  V30 43 1 20 40
M  V30 44 1 24 41
M  V30 45 1 24 42
M  V30 END BOND
M  V30 BEGIN COLLECTION
M  V30 MDLV30/STEABS ATOMS=(4 11 13 16 17)
M  V30 END COLLECTION
M  V30 END CTAB
M  END
>  <level_0>
2007

>  <index>
2007

>  <NO.>
2008

>  <Name>
mitomycin

>  <SMILES>
CO[C@@]12[C@H](COC(N)=O)C3=C(C(=O)C(C)=C(N)C3=O)N1C[C@@H]1N[C@@H]12

>  <logBB>


>  <Class>
-1

>  <MW>
334.13

>  <nHBAcc>
8

>  <nHBDon>
3

>  <SLogP>
-1.65

>  <TopoPSA>
146.89

>  <MMFF94 Energy>
61.1

$$$$
CO[C@H](C(=O)[C@@H](O)[C@@H](C)O)[C@@H]1Cc2cc3cc(O[C@H]4C[C@@H](O[C@H]5C[C@@H](O)[C@H](O)[C@@H](C)O5)[C@H](O)[C@@H](C)O4)c(C)c(O)c3c(O)c2C(=O)[C@H]1O[C@H]1C[C@@H](O[C@H]2C[C@@H](O[C@H]3C[C@](C)(O)[C@H](O)[C@@H](C)O3)[C@H](O)[C@@H](C)O2)[C@H](O)[C@@H](C)O1
Actelion Java MolfileCreator 2.0

  0  0  0  0  0  0              0 V3000
M  V30 BEGIN CTAB
M  V30 COUNTS 152 159 0 0 0
M  V30 BEGIN ATOM
M  V30 1 O -1.1206 -1.2808 -0.9605 0
M  V30 2 C -1.29 -0.1757 -1.4824 0
M  V30 3 C -0.2273 0.3594 -2.3745 0
M  V30 4 C -2.5663 0.6488 -1.2851 0 CFG=1
M  V30 5 C 0.9365 -0.39 -2.6365 0
M  V30 6 C -0.3869 1.6196 -2.9569 0
M  V30 7 O -3.0887 0.3908 0.0231 0
M  V30 8 C -2.2726 2.1506 -1.3736 0 CFG=1
M  V30 9 O 1.1287 -1.6345 -2.0638 0
M  V30 10 C 1.9606 0.0889 -3.4989 0
M  V30 11 C 0.6096 2.0989 -3.8191 0
M  V30 12 C -1.6189 2.4554 -2.7277 0
M  V30 13 C -4.0054 -0.7012 0.0446 0 CFG=2
M  V30 14 C -3.571 2.9643 -1.1682 0 CFG=2
M  V30 15 C 3.1583 -0.6137 -3.8204 0
M  V30 16 C 1.7727 1.3588 -4.089 0
M  V30 17 O -5.2432 -0.2784 -0.5188 0
M  V30 18 C -4.2243 -1.0854 1.4984 0
M  V30 19 O -4.4319 2.7014 -2.2784 0
M  V30 20 C -3.2558 4.4644 -0.9933 0
M  V30 21 O 3.4141 -1.8498 -3.271 0
M  V30 22 C 4.1304 -0.0998 -4.6926 0
M  V30 23 C 2.7518 1.8849 -4.9431 0
M  V30 24 C -6.2029 -1.3384 -0.562 0 CFG=1
M  V30 25 C -5.2395 -2.2168 1.6107 0 CFG=2
M  V30 26 C -5.7978 2.9906 -2.0061 0
M  V30 27 O -3.5588 5.3122 -1.8398 0
M  V30 28 C -2.5328 4.8672 0.2948 0 CFG=1
M  V30 29 C 3.9237 1.177 -5.2162 0
M  V30 30 C 5.3808 -0.8761 -4.9941 0
M  V30 31 C -6.5324 -1.8586 0.8489 0 CFG=2
M  V30 32 C -7.4457 -0.7972 -1.2624 0
M  V30 33 O -5.5173 -2.383 3.0113 0
M  V30 34 O -1.1246 4.8225 0.0746 0
M  V30 35 C -2.954 6.2886 0.7122 0 CFG=2
M  V30 36 O 4.8599 1.7201 -6.0575 0
M  V30 37 O -7.3824 -3.0015 0.7304 0
M  V30 38 C -5.5711 -3.7394 3.4433 0 CFG=2
M  V30 39 O -2.3939 7.2332 -0.2121 0
M  V30 40 C -2.4297 6.6483 2.0961 0
M  V30 41 C 5.5646 2.8023 -5.4295 0 CFG=2
M  V30 42 O -6.7311 -4.3709 2.9097 0
M  V30 43 C -5.6444 -3.7265 4.9658 0
M  V30 44 O 4.914 4.0489 -5.6877 0
M  V30 45 C 6.9661 2.823 -6.0344 0
M  V30 46 C -6.8285 -5.7479 3.2999 0 CFG=1
M  V30 47 C -5.7571 -5.1485 5.499 0 CFG=2
M  V30 48 C 5.5824 5.1504 -5.0632 0 CFG=1
M  V30 49 C 7.7769 3.9711 -5.4474 0 CFG=2
M  V30 50 C -6.9324 -5.8751 4.8264 0 CFG=2
M  V30 51 C -8.0517 -6.3355 2.6047 0
M  V30 52 O -6.0143 -5.1471 6.9119 0
M  V30 53 C 7.0101 5.295 -5.6071 0 CFG=2
M  V30 54 C 4.7526 6.4018 -5.3286 0
M  V30 55 O 9.0346 4.1339 -6.1227 0
M  V30 56 O -6.9199 -7.2499 5.2203 0
M  V30 57 C -4.8272 -5.0682 7.7026 0 CFG=2
M  V30 58 O 7.7143 6.33 -4.9146 0
M  V30 59 C 10.0321 3.1916 -5.7332 0 CFG=2
M  V30 60 O -4.1284 -6.3093 7.6179 0
M  V30 61 C -5.2608 -4.8198 9.1449 0
M  V30 62 O 10.3845 3.3925 -4.365 0
M  V30 63 C 11.2476 3.4235 -6.6236 0
M  V30 64 C -2.9095 -6.2876 8.368 0 CFG=1
M  V30 65 C -4.0571 -4.8251 10.0856 0 CFG=1
M  V30 66 C 11.3854 2.4752 -3.9114 0 CFG=1
M  V30 67 C 12.3817 2.5035 -6.208 0 CFG=2
M  V30 68 C -3.2037 -6.095 9.868 0 CFG=2
M  V30 69 C -2.1891 -7.6068 8.1081 0
M  V30 70 O -3.2511 -3.6716 9.7948 0
M  V30 71 C -4.511 -4.6911 11.5412 0
M  V30 72 C 12.6849 2.6558 -4.7119 0 CFG=2
M  V30 73 C 11.5975 2.7324 -2.4235 0
M  V30 74 O 13.552 2.806 -6.9697 0
M  V30 75 O -1.973 -5.966 10.5913 0
M  V30 76 O 13.6747 1.6845 -4.3594 0
M  V30 77 H -3.2801 0.3475 -2.063 0
M  V30 78 H -1.5671 2.4003 -0.5703 0
M  V30 79 H 0.3504 -1.8272 -1.4889 0
M  V30 80 H 0.4779 3.0748 -4.2886 0
M  V30 81 H -2.3111 2.2626 -3.5564 0
M  V30 82 H -1.3473 3.5174 -2.7654 0
M  V30 83 H -3.6047 -1.5512 -0.521 0
M  V30 84 H -4.0734 2.6444 -0.2466 0
M  V30 85 H -4.5781 -0.2144 2.0676 0
M  V30 86 H -3.2772 -1.3714 1.9721 0
M  V30 87 H 2.6426 -2.0715 -2.7084 0
M  V30 88 H 2.6087 2.8584 -5.4091 0
M  V30 89 H -5.8048 -2.1539 -1.1804 0
M  V30 90 H -4.8063 -3.1374 1.1977 0
M  V30 91 H -5.9353 4.0477 -1.7629 0
M  V30 92 H -6.3804 2.7618 -2.9024 0
M  V30 93 H -6.1654 2.367 -1.186 0
M  V30 94 H -2.7941 4.1516 1.0813 0
M  V30 95 H 6.1159 -0.7221 -4.1981 0
M  V30 96 H 5.1698 -1.9467 -5.0845 0
M  V30 97 H 5.8283 -0.571 -5.9454 0
M  V30 98 H -7.0824 -1.0981 1.4171 0
M  V30 99 H -8.2129 -1.5681 -1.3792 0
M  V30 100 H -7.8733 0.0433 -0.7047 0
M  V30 101 H -7.1854 -0.4135 -2.255 0
M  V30 102 H -0.8912 5.6978 -0.3024 0
M  V30 103 H -4.0445 6.3982 0.6978 0
M  V30 104 H -7.4089 -3.4245 1.6161 0
M  V30 105 H -4.6653 -4.264 3.1121 0
M  V30 106 H -2.8378 7.0708 -1.0731 0
M  V30 107 H -1.335 6.627 2.1265 0
M  V30 108 H -2.8166 5.964 2.8571 0
M  V30 109 H -2.7286 7.6683 2.3615 0
M  V30 110 H 5.6369 2.6408 -4.3433 0
M  V30 111 H -6.5114 -3.1396 5.2985 0
M  V30 112 H -4.7719 -3.2126 5.3849 0
M  V30 113 H 6.9075 2.9339 -7.1255 0
M  V30 114 H 7.4596 1.8592 -5.8674 0
M  V30 115 H -5.9456 -6.2869 2.9319 0
M  V30 116 H -4.8358 -5.7094 5.2934 0
M  V30 117 H 5.6027 4.9899 -3.9772 0
M  V30 118 H 7.9606 3.8036 -4.3782 0
M  V30 119 H -7.8765 -5.4427 5.1818 0
M  V30 120 H -8.1689 -7.4006 2.8248 0
M  V30 121 H -8.964 -5.8104 2.9086 0
M  V30 122 H -7.967 -6.2127 1.5194 0
M  V30 123 H 6.9861 5.5723 -6.6688 0
M  V30 124 H 5.1839 7.2828 -4.8442 0
M  V30 125 H 4.6704 6.596 -6.4037 0
M  V30 126 H 3.7313 6.2663 -4.956 0
M  V30 127 H -6.775 -7.2423 6.1876 0
M  V30 128 H -4.1923 -4.2505 7.3409 0
M  V30 129 H 8.6465 6.24 -5.1957 0
M  V30 130 H 9.6551 2.172 -5.8735 0
M  V30 131 H -5.9717 -5.6003 9.4473 0
M  V30 132 H -5.7975 -3.864 9.1963 0
M  V30 133 H 10.9924 3.2753 -7.6798 0
M  V30 134 H 11.5753 4.4695 -6.5508 0
M  V30 135 H -2.2657 -5.4815 7.9924 0
M  V30 136 H 11.0093 1.4496 -4.0209 0
M  V30 137 H 12.1227 1.4617 -6.4342 0
M  V30 138 H -3.7456 -6.9721 10.2451 0
M  V30 139 H -2.0153 -7.739 7.0346 0
M  V30 140 H -1.2249 -7.6488 8.6229 0
M  V30 141 H -2.7992 -8.4568 8.4333 0
M  V30 142 H -2.375 -3.8478 10.1953 0
M  V30 143 H -5.1139 -5.5491 11.8553 0
M  V30 144 H -5.1071 -3.7814 11.6785 0
M  V30 145 H -3.6553 -4.5998 12.2191 0
M  V30 146 H 13.1185 3.649 -4.5383 0
M  V30 147 H 12.3053 2.0225 -1.9865 0
M  V30 148 H 10.6475 2.6484 -1.8841 0
M  V30 149 H 11.9666 3.7495 -2.2512 0
M  V30 150 H 14.2656 2.269 -6.573 0
M  V30 151 H -2.1398 -6.2619 11.5045 0
M  V30 152 H 14.0345 1.9379 -3.4904 0
M  V30 END ATOM
M  V30 BEGIN BOND
M  V30 1 2 1 2
M  V30 2 1 2 3
M  V30 3 1 2 4
M  V30 4 2 3 5
M  V30 5 1 3 6
M  V30 6 1 4 7
M  V30 7 1 4 8
M  V30 8 1 5 9
M  V30 9 1 5 10
M  V30 10 2 6 11
M  V30 11 1 6 12
M  V30 12 1 7 13
M  V30 13 1 8 14
M  V30 14 2 10 15
M  V30 15 1 10 16
M  V30 16 1 13 17
M  V30 17 1 13 18
M  V30 18 1 14 19
M  V30 19 1 14 20
M  V30 20 1 15 21
M  V30 21 1 15 22
M  V30 22 2 16 23
M  V30 23 1 17 24
M  V30 24 1 18 25
M  V30 25 1 19 26
M  V30 26 2 20 27
M  V30 27 1 20 28
M  V30 28 2 22 29
M  V30 29 1 22 30
M  V30 30 1 24 31
M  V30 31 1 24 32
M  V30 32 1 25 33
M  V30 33 1 28 34
M  V30 34 1 28 35
M  V30 35 1 29 36
M  V30 36 1 31 37
M  V30 37 1 33 38
M  V30 38 1 35 39
M  V30 39 1 35 40
M  V30 40 1 36 41
M  V30 41 1 38 42
M  V30 42 1 38 43
M  V30 43 1 41 44
M  V30 44 1 41 45
M  V30 45 1 42 46
M  V30 46 1 43 47
M  V30 47 1 44 48
M  V30 48 1 45 49
M  V30 49 1 46 50
M  V30 50 1 46 51
M  V30 51 1 47 52
M  V30 52 1 48 53
M  V30 53 1 48 54
M  V30 54 1 49 55
M  V30 55 1 50 56
M  V30 56 1 52 57
M  V30 57 1 53 58
M  V30 58 1 55 59
M  V30 59 1 57 60
M  V30 60 1 57 61
M  V30 61 1 59 62
M  V30 62 1 59 63
M  V30 63 1 60 64
M  V30 64 1 61 65
M  V30 65 1 62 66
M  V30 66 1 63 67
M  V30 67 1 64 68
M  V30 68 1 64 69
M  V30 69 1 65 70
M  V30 70 1 65 71
M  V30 71 1 66 72
M  V30 72 1 66 73
M  V30 73 1 67 74
M  V30 74 1 68 75
M  V30 75 1 72 76
M  V30 76 1 8 12
M  V30 77 1 11 16
M  V30 78 1 23 29
M  V30 79 1 25 31
M  V30 80 1 47 50
M  V30 81 1 49 53
M  V30 82 1 65 68
M  V30 83 1 67 72
M  V30 84 1 4 77
M  V30 85 1 8 78
M  V30 86 1 9 79
M  V30 87 1 11 80
M  V30 88 1 12 81
M  V30 89 1 12 82
M  V30 90 1 13 83
M  V30 91 1 14 84
M  V30 92 1 18 85
M  V30 93 1 18 86
M  V30 94 1 21 87
M  V30 95 1 23 88
M  V30 96 1 24 89
M  V30 97 1 25 90
M  V30 98 1 26 91
M  V30 99 1 26 92
M  V30 100 1 26 93
M  V30 101 1 28 94
M  V30 102 1 30 95
M  V30 103 1 30 96
M  V30 104 1 30 97
M  V30 105 1 31 98
M  V30 106 1 32 99
M  V30 107 1 32 100
M  V30 108 1 32 101
M  V30 109 1 34 102
M  V30 110 1 35 103
M  V30 111 1 37 104
M  V30 112 1 38 105
M  V30 113 1 39 106
M  V30 114 1 40 107
M  V30 115 1 40 108
M  V30 116 1 40 109
M  V30 117 1 41 110
M  V30 118 1 43 111
M  V30 119 1 43 112
M  V30 120 1 45 113
M  V30 121 1 45 114
M  V30 122 1 46 115
M  V30 123 1 47 116
M  V30 124 1 48 117
M  V30 125 1 49 118
M  V30 126 1 50 119
M  V30 127 1 51 120
M  V30 128 1 51 121
M  V30 129 1 51 122
M  V30 130 1 53 123
M  V30 131 1 54 124
M  V30 132 1 54 125
M  V30 133 1 54 126
M  V30 134 1 56 127
M  V30 135 1 57 128
M  V30 136 1 58 129
M  V30 137 1 59 130
M  V30 138 1 61 131
M  V30 139 1 61 132
M  V30 140 1 63 133
M  V30 141 1 63 134
M  V30 142 1 64 135
M  V30 143 1 66 136
M  V30 144 1 67 137
M  V30 145 1 68 138
M  V30 146 1 69 139
M  V30 147 1 69 140
M  V30 148 1 69 141
M  V30 149 1 70 142
M  V30 150 1 71 143
M  V30 151 1 71 144
M  V30 152 1 71 145
M  V30 153 1 72 146
M  V30 154 1 73 147
M  V30 155 1 73 148
M  V30 156 1 73 149
M  V30 157 1 74 150
M  V30 158 1 75 151
M  V30 159 1 76 152
M  V30 END BOND
M  V30 BEGIN COLLECTION
M  V30 MDLV30/STEABS ATOMS=(25 4 8 13 14 24 25 28 31 35 38 41 46 47 48 49 50 53 57 59 64 65 66 67 68 72)
M  V30 END COLLECTION
M  V30 END CTAB
M  END
>  <level_0>
2008

>  <index>
2008

>  <NO.>
2009

>  <Name>
plicamycin

>  <SMILES>
CO[C@H](C(=O)[C@@H](O)[C@@H](C)O)[C@@H]1Cc2cc3cc(O[C@H]4C[C@@H](O[C@H]5C[C@@H](O)[C@H](O)[C@@H](C)O5)[C@H](O)[C@@H](C)O4)c(C)c(O)c3c(O)c2C(=O)[C@H]1O[C@H]1C[C@@H](O[C@H]2C[C@@H](O[C@H]3C[C@](C)(O)[C@H](O)[C@@H](C)O3)[C@H](O)[C@@H](C)O2)[C@H](O)[C@@H](C)O1

>  <logBB>


>  <Class>
1

>  <MW>
1084.47

>  <nHBAcc>
24

>  <nHBDon>
11

>  <SLogP>
-0.25

>  <TopoPSA>
358.2

>  <MMFF94 Energy>
260.83

$$$$
CO[C@H]1/C=C/O[C@@]2(C)Oc3c(C)c(O)c4c(O)c(c(C=NN5CCN(C6CCCC6)CC5)c(O)c4c3C2=O)NC(=O)/C(C)=C\C=C\[C@H](C)[C@H](O)[C@@H](C)[C@@H](O)[C@@H](C)[C@H](OC(C)=O)[C@@H]1C
Actelion Java MolfileCreator 2.0

  0  0  0  0  0  0              0 V3000
M  V30 BEGIN CTAB
M  V30 COUNTS 127 132 0 0 0
M  V30 BEGIN ATOM
M  V30 1 O -1.8314 4.1442 0.7163 0
M  V30 2 C -1.4774 3.4589 1.6727 0
M  V30 3 N -0.3138 2.7443 1.7515 0
M  V30 4 C -2.3099 3.3891 2.9035 0
M  V30 5 C 0.6137 2.4676 0.7109 0
M  V30 6 C -2.9065 2.2509 3.3037 0
M  V30 7 C -2.4556 4.6917 3.6265 0
M  V30 8 C 0.9247 3.3502 -0.339 0
M  V30 9 C 1.2851 1.2371 0.7416 0
M  V30 10 C -2.8791 0.9535 2.6647 0
M  V30 11 O 0.3805 4.6191 -0.3867 0
M  V30 12 C 1.8334 3.026 -1.3947 0
M  V30 13 C 2.1583 0.8661 -0.2991 0
M  V30 14 C 1.1208 0.293 1.8786 0
M  V30 15 C -3.345 0.6312 1.4472 0
M  V30 16 C 2.1518 3.938 -2.4638 0
M  V30 17 C 2.4313 1.7355 -1.4004 0
M  V30 18 O 2.7511 -0.3658 -0.156 0
M  V30 19 N 0.8272 0.7131 3.0753 0
M  V30 20 C -3.9807 1.547 0.4206 0 CFG=1
M  V30 21 O 1.6211 5.2095 -2.4944 0
M  V30 22 C 2.987 3.6196 -3.5426 0
M  V30 23 C 3.2363 1.4491 -2.5303 0
M  V30 24 N 0.7808 -0.2688 4.0217 0
M  V30 25 C -3.1902 1.4782 -0.9263 0 CFG=2
M  V30 26 C -5.48 1.2574 0.326 0
M  V30 27 C 3.4852 2.3373 -3.5662 0
M  V30 28 C 3.2494 4.5932 -4.6515 0
M  V30 29 C 3.9402 0.2529 -2.9378 0
M  V30 30 C 0.1022 0.1331 5.2748 0
M  V30 31 C 2.0774 -0.89 4.4026 0
M  V30 32 O -3.3435 2.7218 -1.6272 0
M  V30 33 C -3.5566 0.2732 -1.8597 0 CFG=2
M  V30 34 O 4.2539 1.8574 -4.597 0
M  V30 35 O 4.1656 -0.6942 -2.1998 0
M  V30 36 C 4.3343 0.4162 -4.4079 0 CFG=2
M  V30 37 C -0.0869 -1.047 6.2474 0
M  V30 38 C 1.9028 -2.0742 5.3799 0
M  V30 39 C -2.3238 -0.3065 -2.6386 0 CFG=1
M  V30 40 C -4.6734 0.6823 -2.8418 0
M  V30 41 O 3.4557 -0.2062 -5.3493 0
M  V30 42 C 5.7852 0.0167 -4.6528 0
M  V30 43 N 1.1921 -1.686 6.6096 0
M  V30 44 O -1.1601 -0.1947 -1.8095 0
M  V30 45 C -2.4501 -1.8119 -3.057 0 CFG=2
M  V30 46 C 3.0815 -1.478 -5.0235 0
M  V30 47 C 1.0052 -2.7524 7.5983 0
M  V30 48 C -1.1671 -2.4099 -3.735 0 CFG=2
M  V30 49 C -3.6714 -2.1385 -3.9187 0
M  V30 50 C 1.8053 -1.8686 -4.9238 0
M  V30 51 C 0.2353 -4.0089 7.1771 0
M  V30 52 C 2.2981 -3.3505 8.1636 0
M  V30 53 O -0.0745 -2.3834 -2.7941 0
M  V30 54 C -0.7746 -1.723 -5.0883 0 CFG=1
M  V30 55 C 0.5959 -0.9908 -5.1338 0 CFG=1
M  V30 56 C 0.5134 -5.0083 8.3002 0
M  V30 57 C 1.81 -4.5504 8.9711 0
M  V30 58 C -0.0082 -3.4046 -1.896 0
M  V30 59 C -0.8794 -2.736 -6.2423 0
M  V30 60 O 0.5997 0.0439 -4.137 0
M  V30 61 O -0.7603 -4.3681 -1.8551 0
M  V30 62 C 1.1162 -3.1719 -0.9368 0
M  V30 63 C 0.2363 1.3106 -4.687 0
M  V30 64 H -0.182 2.1779 2.5954 0
M  V30 65 H -3.4743 2.2607 4.2337 0
M  V30 66 H -2.9314 5.4387 2.9826 0
M  V30 67 H -1.4744 5.0703 3.931 0
M  V30 68 H -3.068 4.5926 4.5291 0
M  V30 69 H -2.4841 0.1485 3.2843 0
M  V30 70 H -0.5005 4.5805 0.0459 0
M  V30 71 H 1.2887 -0.7792 1.672 0
M  V30 72 H -3.2624 -0.4144 1.1492 0
M  V30 73 H 3.3661 -0.5716 -0.8896 0
M  V30 74 H -3.9272 2.5813 0.7742 0
M  V30 75 H 1.0705 5.3102 -1.689 0
M  V30 76 H -2.1304 1.4429 -0.6591 0
M  V30 77 H -5.6922 0.2439 -0.0273 0
M  V30 78 H -5.9724 1.9732 -0.3393 0
M  V30 79 H -5.9541 1.361 1.3095 0
M  V30 80 H 2.3783 4.6529 -5.3115 0
M  V30 81 H 3.4677 5.5894 -4.2523 0
M  V30 82 H 4.1165 4.3005 -5.2522 0
M  V30 83 H -0.8863 0.54 5.0375 0
M  V30 84 H 0.6658 0.9371 5.7671 0
M  V30 85 H 2.7352 -0.1322 4.849 0
M  V30 86 H 2.5901 -1.2692 3.5111 0
M  V30 87 H -2.9487 3.4067 -1.0495 0
M  V30 88 H -3.9202 -0.5397 -1.2201 0
M  V30 89 H -0.575 -0.6625 7.1513 0
M  V30 90 H -0.7707 -1.7749 5.7915 0
M  V30 91 H 2.9055 -2.4416 5.6202 0
M  V30 92 H 1.373 -2.8783 4.8551 0
M  V30 93 H -2.152 0.3187 -3.519 0
M  V30 94 H -5.434 1.3064 -2.3675 0
M  V30 95 H -4.2706 1.2506 -3.6873 0
M  V30 96 H -5.2113 -0.1758 -3.2424 0
M  V30 97 H 6.0702 0.2272 -5.6897 0
M  V30 98 H 5.9496 -1.0507 -4.4766 0
M  V30 99 H 6.4668 0.5784 -4.0042 0
M  V30 100 H -0.3836 -0.3291 -2.3949 0
M  V30 101 H -2.5719 -2.3676 -2.1161 0
M  V30 102 H 3.9098 -2.1548 -4.8535 0
M  V30 103 H 0.4751 -2.3065 8.4536 0
M  V30 104 H -1.3808 -3.464 -3.9589 0
M  V30 105 H -3.5999 -3.1443 -4.3469 0
M  V30 106 H -3.7897 -1.4306 -4.7442 0
M  V30 107 H -4.5814 -2.1416 -3.3125 0
M  V30 108 H 1.6274 -2.9092 -4.6669 0
M  V30 109 H 0.6143 -4.421 6.2356 0
M  V30 110 H -0.8373 -3.8282 7.0576 0
M  V30 111 H 2.8533 -2.6394 8.7835 0
M  V30 112 H 2.9674 -3.7076 7.3736 0
M  V30 113 H -1.5378 -0.9666 -5.3075 0
M  V30 114 H 0.7043 -0.5423 -6.1324 0
M  V30 115 H 0.5985 -6.027 7.9082 0
M  V30 116 H -0.3046 -5.005 9.0296 0
M  V30 117 H 1.6052 -4.2521 10.006 0
M  V30 118 H 2.5594 -5.3475 9.001 0
M  V30 119 H -0.1975 -3.5811 -6.1052 0
M  V30 120 H -1.8967 -3.1356 -6.3141 0
M  V30 121 H -0.6459 -2.2605 -7.2008 0
M  V30 122 H 2.0219 -2.892 -1.4811 0
M  V30 123 H 0.8327 -2.3906 -0.229 0
M  V30 124 H 1.3227 -4.0957 -0.3893 0
M  V30 125 H -0.7172 1.2509 -5.2195 0
M  V30 126 H 0.1265 2.0226 -3.8663 0
M  V30 127 H 1.0182 1.6647 -5.3648 0
M  V30 END ATOM
M  V30 BEGIN BOND
M  V30 1 2 1 2
M  V30 2 1 2 3
M  V30 3 1 2 4
M  V30 4 1 3 5
M  V30 5 2 4 6
M  V30 6 1 4 7
M  V30 7 2 5 8
M  V30 8 1 5 9
M  V30 9 1 6 10
M  V30 10 1 8 11
M  V30 11 1 8 12
M  V30 12 2 9 13
M  V30 13 1 9 14
M  V30 14 2 10 15
M  V30 15 2 12 16
M  V30 16 1 12 17
M  V30 17 1 13 18
M  V30 18 2 14 19
M  V30 19 1 15 20
M  V30 20 1 16 21
M  V30 21 1 16 22
M  V30 22 2 17 23
M  V30 23 1 19 24
M  V30 24 1 20 25
M  V30 25 1 20 26
M  V30 26 2 22 27
M  V30 27 1 22 28
M  V30 28 1 23 29
M  V30 29 1 24 30
M  V30 30 1 24 31
M  V30 31 1 25 32
M  V30 32 1 25 33
M  V30 33 1 27 34
M  V30 34 2 29 35
M  V30 35 1 29 36
M  V30 36 1 30 37
M  V30 37 1 31 38
M  V30 38 1 33 39
M  V30 39 1 33 40
M  V30 40 1 36 41
M  V30 41 1 36 42
M  V30 42 1 37 43
M  V30 43 1 39 44
M  V30 44 1 39 45
M  V30 45 1 41 46
M  V30 46 1 43 47
M  V30 47 1 45 48
M  V30 48 1 45 49
M  V30 49 2 46 50
M  V30 50 1 47 51
M  V30 51 1 47 52
M  V30 52 1 48 53
M  V30 53 1 48 54
M  V30 54 1 50 55
M  V30 55 1 51 56
M  V30 56 1 52 57
M  V30 57 1 53 58
M  V30 58 1 54 59
M  V30 59 1 55 60
M  V30 60 2 58 61
M  V30 61 1 58 62
M  V30 62 1 60 63
M  V30 63 1 13 17
M  V30 64 1 23 27
M  V30 65 1 34 36
M  V30 66 1 38 43
M  V30 67 1 54 55
M  V30 68 1 56 57
M  V30 69 1 3 64
M  V30 70 1 6 65
M  V30 71 1 7 66
M  V30 72 1 7 67
M  V30 73 1 7 68
M  V30 74 1 10 69
M  V30 75 1 11 70
M  V30 76 1 14 71
M  V30 77 1 15 72
M  V30 78 1 18 73
M  V30 79 1 20 74
M  V30 80 1 21 75
M  V30 81 1 25 76
M  V30 82 1 26 77
M  V30 83 1 26 78
M  V30 84 1 26 79
M  V30 85 1 28 80
M  V30 86 1 28 81
M  V30 87 1 28 82
M  V30 88 1 30 83
M  V30 89 1 30 84
M  V30 90 1 31 85
M  V30 91 1 31 86
M  V30 92 1 32 87
M  V30 93 1 33 88
M  V30 94 1 37 89
M  V30 95 1 37 90
M  V30 96 1 38 91
M  V30 97 1 38 92
M  V30 98 1 39 93
M  V30 99 1 40 94
M  V30 100 1 40 95
M  V30 101 1 40 96
M  V30 102 1 42 97
M  V30 103 1 42 98
M  V30 104 1 42 99
M  V30 105 1 44 100
M  V30 106 1 45 101
M  V30 107 1 46 102
M  V30 108 1 47 103
M  V30 109 1 48 104
M  V30 110 1 49 105
M  V30 111 1 49 106
M  V30 112 1 49 107
M  V30 113 1 50 108
M  V30 114 1 51 109
M  V30 115 1 51 110
M  V30 116 1 52 111
M  V30 117 1 52 112
M  V30 118 1 54 113
M  V30 119 1 55 114
M  V30 120 1 56 115
M  V30 121 1 56 116
M  V30 122 1 57 117
M  V30 123 1 57 118
M  V30 124 1 59 119
M  V30 125 1 59 120
M  V30 126 1 59 121
M  V30 127 1 62 122
M  V30 128 1 62 123
M  V30 129 1 62 124
M  V30 130 1 63 125
M  V30 131 1 63 126
M  V30 132 1 63 127
M  V30 END BOND
M  V30 BEGIN COLLECTION
M  V30 MDLV30/STEABS ATOMS=(9 20 25 33 36 39 45 48 54 55)
M  V30 END COLLECTION
M  V30 END CTAB
M  END
>  <level_0>
2009

>  <index>
2009

>  <NO.>
2010

>  <Name>
rifapentine

>  <SMILES>
CO[C@H]1/C=C/O[C@@]2(C)Oc3c(C)c(O)c4c(O)c(c(C=NN5CCN(C6CCCC6)CC5)c(O)c4c3C2=O)NC(=O)/C(C)=C\C=C\[C@H](C)[C@H](O)[C@@H](C)[C@@H](O)[C@@H](C)[C@H](OC(C)=O)[C@@H]1C

>  <logBB>


>  <Class>
-1

>  <MW>
876.45

>  <nHBAcc>
15

>  <nHBDon>
6

>  <SLogP>
5.65

>  <TopoPSA>
220.15

>  <MMFF94 Energy>
231.95

$$$$
CO[C@H]1/C=C/O[C@@]2(C)Oc3c(C)c(O)c4c(O)c(c5c(c4c3C2=O)NC2(CCN(CC(C)C)CC2)N=5)=NC(=O)/C(C)=C\C=C\[C@H](C)[C@H](O)[C@@H](C)[C@@H](O)[C@@H](C)[C@H](OC(C)=O)[C@@H]1C
Actelion Java MolfileCreator 2.0

  0  0  0  0  0  0              0 V3000
M  V30 BEGIN CTAB
M  V30 COUNTS 123 128 0 0 0
M  V30 BEGIN ATOM
M  V30 1 O 1.7541 2.4724 5.1096 0
M  V30 2 C 1.8819 1.2723 4.9071 0
M  V30 3 N 0.862 0.3643 4.9275 0
M  V30 4 C 3.2214 0.6074 4.8622 0
M  V30 5 C -0.0296 0.3644 3.9804 0
M  V30 6 C 3.4622 -0.2596 3.8597 0
M  V30 7 C 4.1469 1.0303 5.9596 0
M  V30 8 C -1.2407 -0.5209 4.1147 0
M  V30 9 C 0.0356 1.1902 2.7337 0
M  V30 10 C 4.641 -1.0787 3.7183 0
M  V30 11 O -1.224 -1.3756 5.2096 0
M  V30 12 C -2.2808 -0.435 3.2449 0
M  V30 13 N 1.0877 1.8544 2.3177 0
M  V30 14 C -1.1404 1.2467 1.8458 0
M  V30 15 C 5.0354 -1.7523 2.6268 0
M  V30 16 C -3.535 -1.2426 3.4179 0
M  V30 17 C -2.2196 0.4905 2.0705 0
M  V30 18 C 0.5927 2.5755 1.0951 0
M  V30 19 N -0.7677 2.1191 0.8807 0
M  V30 20 C 4.4855 -1.7878 1.2088 0 CFG=1
M  V30 21 O -3.5415 -2.0777 4.5196 0
M  V30 22 C -4.5752 -1.1387 2.5521 0
M  V30 23 C -3.3566 0.4853 1.1814 0
M  V30 24 C 0.6285 4.0761 1.3756 0
M  V30 25 C 1.4886 2.2176 -0.0846 0
M  V30 26 C 3.0987 -2.4824 1.033 0 CFG=2
M  V30 27 C 4.5252 -0.3952 0.5702 0
M  V30 28 C -4.441 -0.2586 1.3982 0
M  V30 29 C -5.887 -1.8732 2.6508 0
M  V30 30 C -3.643 1.0863 -0.1214 0
M  V30 31 C 0.3743 4.8944 0.1116 0
M  V30 32 C 1.2025 3.1079 -1.2914 0
M  V30 33 O 3.0751 -3.7359 1.7276 0
M  V30 34 C 2.6919 -2.7538 -0.4534 0 CFG=2
M  V30 35 O -5.4697 -0.2233 0.4735 0
M  V30 36 O -2.9531 1.9358 -0.6716 0
M  V30 37 C -4.9215 0.4654 -0.6765 0 CFG=2
M  V30 38 N 1.3163 4.5375 -0.9612 0
M  V30 39 C 1.2495 -3.3599 -0.5662 0 CFG=1
M  V30 40 C 3.7305 -3.6492 -1.1545 0
M  V30 41 O -4.5588 -0.3801 -1.7799 0
M  V30 42 C -5.9014 1.5305 -1.1404 0
M  V30 43 C 1.1053 5.3516 -2.1736 0
M  V30 44 O 0.3371 -2.4914 0.1056 0
M  V30 45 C 0.7977 -3.6018 -2.0408 0 CFG=2
M  V30 46 C -5.0744 -1.6442 -1.7331 0
M  V30 47 C 1.4807 6.843 -2.0221 0
M  V30 48 C -0.5285 -2.9648 -2.5478 0 CFG=2
M  V30 49 C 0.8839 -5.0985 -2.3939 0
M  V30 50 C -4.3975 -2.7242 -2.1364 0
M  V30 51 C 2.9347 7.0268 -1.5813 0
M  V30 52 C 1.2438 7.5731 -3.3474 0
M  V30 53 O -0.3216 -1.5229 -2.6269 0
M  V30 54 C -1.8808 -3.1653 -1.7993 0 CFG=1
M  V30 55 C -3.0282 -2.7148 -2.7614 0 CFG=1
M  V30 56 C 0.1594 -1.0244 -3.7963 0
M  V30 57 C -2.0958 -4.587 -1.281 0
M  V30 58 O -3.0824 -3.6269 -3.8707 0
M  V30 59 O 0.4391 -1.6727 -4.7943 0
M  V30 60 C 0.3352 0.457 -3.6827 0
M  V30 61 C -3.43 -2.9841 -5.092 0
M  V30 62 H 2.6983 -0.388 3.0994 0
M  V30 63 H 3.7482 0.7188 6.9308 0
M  V30 64 H 4.2619 2.1196 5.9687 0
M  V30 65 H 5.1504 0.6089 5.8611 0
M  V30 66 H 5.2608 -1.1868 4.6079 0
M  V30 67 H -2.0862 -1.8353 5.2327 0
M  V30 68 H 5.9488 -2.3408 2.7419 0
M  V30 69 H -1.3482 2.3447 0.0746 0
M  V30 70 H 5.23 -2.3942 0.6796 0
M  V30 71 H -4.3595 -2.6027 4.5287 0
M  V30 72 H -0.1109 4.3478 2.14 0
M  V30 73 H 1.6096 4.351 1.787 0
M  V30 74 H 2.542 2.3371 0.2023 0
M  V30 75 H 1.3624 1.1642 -0.3661 0
M  V30 76 H 2.3326 -1.8518 1.4945 0
M  V30 77 H 5.4756 0.1099 0.7776 0
M  V30 78 H 3.7173 0.2414 0.9428 0
M  V30 79 H 4.4277 -0.4565 -0.5179 0
M  V30 80 H -6.003 -2.5614 1.8062 0
M  V30 81 H -5.9963 -2.4614 3.5643 0
M  V30 82 H -6.724 -1.1654 2.6394 0
M  V30 83 H -0.6634 4.7604 -0.2201 0
M  V30 84 H 0.4894 5.9484 0.3854 0
M  V30 85 H 0.2079 2.8828 -1.6972 0
M  V30 86 H 1.9326 2.8542 -2.0697 0
M  V30 87 H 3.3189 -3.554 2.6538 0
M  V30 88 H 2.6682 -1.7851 -0.9683 0
M  V30 89 H 1.2224 -4.3168 -0.0297 0
M  V30 90 H 3.5061 -3.7924 -2.2141 0
M  V30 91 H 3.7864 -4.6365 -0.6847 0
M  V30 92 H 4.7289 -3.2058 -1.1373 0
M  V30 93 H -5.5036 2.0954 -1.9901 0
M  V30 94 H -6.1425 2.2313 -0.3338 0
M  V30 95 H -6.8412 1.0694 -1.4642 0
M  V30 96 H 0.0623 5.2671 -2.5081 0
M  V30 97 H 1.7239 4.9419 -2.984 0
M  V30 98 H 0.3765 -2.733 1.0486 0
M  V30 99 H 1.5602 -3.1303 -2.6742 0
M  V30 100 H -6.0836 -1.7118 -1.3447 0
M  V30 101 H 0.8313 7.3141 -1.2752 0
M  V30 102 H -0.6708 -3.3446 -3.5677 0
M  V30 103 H 1.9105 -5.4657 -2.3018 0
M  V30 104 H 0.5705 -5.2781 -3.4277 0
M  V30 105 H 0.2707 -5.7202 -1.7387 0
M  V30 106 H -4.8808 -3.6953 -2.0592 0
M  V30 107 H 3.6262 6.556 -2.2883 0
M  V30 108 H 3.1089 6.5903 -0.5927 0
M  V30 109 H 3.1889 8.0905 -1.5186 0
M  V30 110 H 1.8753 7.1669 -4.1449 0
M  V30 111 H 0.1985 7.4797 -3.6608 0
M  V30 112 H 1.4682 8.6406 -3.2488 0
M  V30 113 H -1.9142 -2.4841 -0.9389 0
M  V30 114 H -2.7973 -1.7057 -3.1271 0
M  V30 115 H -2.0426 -5.325 -2.0872 0
M  V30 116 H -1.3529 -4.8401 -0.5193 0
M  V30 117 H -3.0716 -4.6929 -0.7963 0
M  V30 118 H -0.5544 0.9077 -3.2345 0
M  V30 119 H 1.2207 0.6699 -3.0805 0
M  V30 120 H 0.4649 0.8853 -4.6805 0
M  V30 121 H -2.6654 -2.2511 -5.3672 0
M  V30 122 H -3.4792 -3.7442 -5.8762 0
M  V30 123 H -4.4079 -2.4997 -5.0139 0
M  V30 END ATOM
M  V30 BEGIN BOND
M  V30 1 2 1 2
M  V30 2 1 2 3
M  V30 3 1 2 4
M  V30 4 2 3 5
M  V30 5 2 4 6
M  V30 6 1 4 7
M  V30 7 1 5 8
M  V30 8 1 5 9
M  V30 9 1 6 10
M  V30 10 1 8 11
M  V30 11 2 8 12
M  V30 12 2 9 13
M  V30 13 1 9 14
M  V30 14 2 10 15
M  V30 15 1 12 16
M  V30 16 1 12 17
M  V30 17 1 13 18
M  V30 18 1 14 19
M  V30 19 1 15 20
M  V30 20 1 16 21
M  V30 21 2 16 22
M  V30 22 1 17 23
M  V30 23 1 18 24
M  V30 24 1 18 25
M  V30 25 1 20 26
M  V30 26 1 20 27
M  V30 27 1 22 28
M  V30 28 1 22 29
M  V30 29 1 23 30
M  V30 30 1 24 31
M  V30 31 1 25 32
M  V30 32 1 26 33
M  V30 33 1 26 34
M  V30 34 1 28 35
M  V30 35 2 30 36
M  V30 36 1 30 37
M  V30 37 1 31 38
M  V30 38 1 34 39
M  V30 39 1 34 40
M  V30 40 1 37 41
M  V30 41 1 37 42
M  V30 42 1 38 43
M  V30 43 1 39 44
M  V30 44 1 39 45
M  V30 45 1 41 46
M  V30 46 1 43 47
M  V30 47 1 45 48
M  V30 48 1 45 49
M  V30 49 2 46 50
M  V30 50 1 47 51
M  V30 51 1 47 52
M  V30 52 1 48 53
M  V30 53 1 48 54
M  V30 54 1 50 55
M  V30 55 1 53 56
M  V30 56 1 54 57
M  V30 57 1 55 58
M  V30 58 2 56 59
M  V30 59 1 56 60
M  V30 60 1 58 61
M  V30 61 2 14 17
M  V30 62 1 18 19
M  V30 63 2 23 28
M  V30 64 1 32 38
M  V30 65 1 35 37
M  V30 66 1 54 55
M  V30 67 1 6 62
M  V30 68 1 7 63
M  V30 69 1 7 64
M  V30 70 1 7 65
M  V30 71 1 10 66
M  V30 72 1 11 67
M  V30 73 1 15 68
M  V30 74 1 19 69
M  V30 75 1 20 70
M  V30 76 1 21 71
M  V30 77 1 24 72
M  V30 78 1 24 73
M  V30 79 1 25 74
M  V30 80 1 25 75
M  V30 81 1 26 76
M  V30 82 1 27 77
M  V30 83 1 27 78
M  V30 84 1 27 79
M  V30 85 1 29 80
M  V30 86 1 29 81
M  V30 87 1 29 82
M  V30 88 1 31 83
M  V30 89 1 31 84
M  V30 90 1 32 85
M  V30 91 1 32 86
M  V30 92 1 33 87
M  V30 93 1 34 88
M  V30 94 1 39 89
M  V30 95 1 40 90
M  V30 96 1 40 91
M  V30 97 1 40 92
M  V30 98 1 42 93
M  V30 99 1 42 94
M  V30 100 1 42 95
M  V30 101 1 43 96
M  V30 102 1 43 97
M  V30 103 1 44 98
M  V30 104 1 45 99
M  V30 105 1 46 100
M  V30 106 1 47 101
M  V30 107 1 48 102
M  V30 108 1 49 103
M  V30 109 1 49 104
M  V30 110 1 49 105
M  V30 111 1 50 106
M  V30 112 1 51 107
M  V30 113 1 51 108
M  V30 114 1 51 109
M  V30 115 1 52 110
M  V30 116 1 52 111
M  V30 117 1 52 112
M  V30 118 1 54 113
M  V30 119 1 55 114
M  V30 120 1 57 115
M  V30 121 1 57 116
M  V30 122 1 57 117
M  V30 123 1 60 118
M  V30 124 1 60 119
M  V30 125 1 60 120
M  V30 126 1 61 121
M  V30 127 1 61 122
M  V30 128 1 61 123
M  V30 END BOND
M  V30 BEGIN COLLECTION
M  V30 MDLV30/STEABS ATOMS=(9 20 26 34 37 39 45 48 54 55)
M  V30 END COLLECTION
M  V30 END CTAB
M  END
>  <level_0>
2010

>  <index>
2010

>  <NO.>
2011

>  <Name>
rifabutin

>  <SMILES>
CO[C@H]1/C=C/O[C@@]2(C)Oc3c(C)c(O)c4c(O)c(c5c(c4c3C2=O)NC2(CCN(CC(C)C)CC2)N=5)=NC(=O)/C(C)=C\C=C\[C@H](C)[C@H](O)[C@@H](C)[C@@H](O)[C@@H](C)[C@H](OC(C)=O)[C@@H]1C

>  <logBB>


>  <Class>
-1

>  <MW>
846.44

>  <nHBAcc>
14

>  <nHBDon>
5

>  <SLogP>
4.75

>  <TopoPSA>
209.04

>  <MMFF94 Energy>
190.71

$$$$
CO[C@H]1/C=C/O[C@@]2(C)Oc3c(C)c(O)c4c(O)c(c5c(nc6cc(C)ccn65)c4c3C2=O)NC(=O)/C(C)=C\C=C\[C@H](C)[C@H](O)[C@@H](C)[C@@H](O)[C@@H](C)[C@H](OC(C)=O)[C@@H]1C
Actelion Java MolfileCreator 2.0

  0  0  0  0  0  0              0 V3000
M  V30 BEGIN CTAB
M  V30 COUNTS 108 113 0 0 0
M  V30 BEGIN ATOM
M  V30 1 O 2.5532 -4.3114 2.633 0
M  V30 2 C 1.38 -4.462 2.3163 0
M  V30 3 N 0.3121 -3.8187 2.9054 0
M  V30 4 C 0.9755 -5.3194 1.1703 0
M  V30 5 C 0.3513 -2.436 3.1883 0
M  V30 6 C 0.6889 -4.753 -0.0222 0
M  V30 7 C 0.9609 -6.7887 1.4369 0
M  V30 8 C 1.3755 -1.8293 3.9578 0
M  V30 9 C -0.635 -1.5788 2.659 0
M  V30 10 C 0.7915 -3.3373 -0.3307 0
M  V30 11 O 2.3123 -2.6123 4.6053 0
M  V30 12 C 1.5359 -0.4243 4.0815 0
M  V30 13 N -1.8184 -1.7506 1.9375 0
M  V30 14 C -0.4962 -0.1897 2.7453 0
M  V30 15 C 0.3996 -2.6955 -1.4437 0
M  V30 16 C 2.5429 0.2442 4.8574 0
M  V30 17 C 0.6662 0.3854 3.3284 0
M  V30 18 C -2.4039 -0.4922 1.8267 0
M  V30 19 C -2.4256 -2.8852 1.3853 0
M  V30 20 N -1.6108 0.4486 2.2692 0
M  V30 21 C -0.2674 -3.2464 -2.6841 0 CFG=1
M  V30 22 O 3.3997 -0.4834 5.6512 0
M  V30 23 C 2.7298 1.6418 4.8466 0
M  V30 24 C 0.9929 1.7415 3.1967 0
M  V30 25 C -3.6929 -0.3959 1.2311 0
M  V30 26 C -3.6191 -2.7837 0.7759 0
M  V30 27 C -1.5311 -2.44 -3.1385 0 CFG=2
M  V30 28 C 0.772 -3.4243 -3.7948 0
M  V30 29 C 1.969 2.3604 3.9424 0
M  V30 30 C 3.8015 2.2989 5.6619 0
M  V30 31 C 0.6781 2.6839 2.1449 0
M  V30 32 C -4.2879 -1.4903 0.715 0
M  V30 33 O -2.4317 -3.4007 -3.731 0
M  V30 34 C -1.3513 -1.256 -4.144 0 CFG=2
M  V30 35 O 2.1351 3.6939 3.6664 0
M  V30 36 O -0.0739 2.4431 1.2212 0
M  V30 37 C 1.5636 3.921 2.3211 0 CFG=2
M  V30 38 C -5.6288 -1.4454 0.0468 0
M  V30 39 C -0.5165 -0.0429 -3.6405 0 CFG=1
M  V30 40 C -2.6984 -0.8084 -4.7476 0
M  V30 41 O 0.8677 5.154 2.2993 0
M  V30 42 C 2.8074 3.9598 1.427 0
M  V30 43 O 0.051 0.5741 -4.8108 0
M  V30 44 C -1.2116 1.0754 -2.7983 0 CFG=2
M  V30 45 C 0.1127 5.6473 1.2833 0
M  V30 46 C -0.1578 2.1382 -2.3051 0 CFG=2
M  V30 47 C -1.9968 0.5065 -1.6156 0
M  V30 48 C -0.1393 5.3554 -0.0096 0
M  V30 49 O 0.7507 1.4157 -1.4312 0
M  V30 50 C -0.7708 3.3657 -1.5341 0 CFG=1
M  V30 51 C 0.3472 4.331 -1.0158 0 CFG=1
M  V30 52 C 2.0833 1.4708 -1.6863 0
M  V30 53 C -1.8075 4.0913 -2.4098 0
M  V30 54 O 0.8272 5.0536 -2.1643 0
M  V30 55 O 2.6273 2.1267 -2.5612 0
M  V30 56 C 2.82 0.5686 -0.7423 0
M  V30 57 C 2.158 5.5311 -2.0336 0
M  V30 58 H -0.598 -4.2237 2.7543 0
M  V30 59 H 0.396 -5.4045 -0.8429 0
M  V30 60 H 0.2393 -7.0261 2.2255 0
M  V30 61 H 0.6826 -7.3613 0.5461 0
M  V30 62 H 1.9502 -7.1305 1.758 0
M  V30 63 H 1.2819 -2.7131 0.417 0
M  V30 64 H 2.4641 -3.4031 4.0389 0
M  V30 65 H 0.607 -1.6284 -1.454 0
M  V30 66 H -1.9158 -3.8316 1.4207 0
M  V30 67 H -0.6258 -4.2571 -2.4481 0
M  V30 68 H 3.1736 -1.4296 5.5248 0
M  V30 69 H -4.1545 0.5849 1.188 0
M  V30 70 H -4.0947 -3.6466 0.3185 0
M  V30 71 H -2.056 -2.0961 -2.2444 0
M  V30 72 H 1.5628 -4.1138 -3.4772 0
M  V30 73 H 0.3153 -3.8459 -4.6962 0
M  V30 74 H 1.2544 -2.4787 -4.0632 0
M  V30 75 H 3.8649 1.8517 6.6594 0
M  V30 76 H 3.5938 3.3641 5.8086 0
M  V30 77 H 4.7695 2.1983 5.1615 0
M  V30 78 H -2.042 -3.6888 -4.5751 0
M  V30 79 H -0.8141 -1.6682 -5.0104 0
M  V30 80 H -6.049 -0.4337 0.0443 0
M  V30 81 H -6.3391 -2.0984 0.5651 0
M  V30 82 H -5.55 -1.774 -0.995 0
M  V30 83 H 0.3479 -0.4227 -3.0995 0
M  V30 84 H -3.1466 -1.6122 -5.3418 0
M  V30 85 H -3.4233 -0.5278 -3.9798 0
M  V30 86 H -2.57 0.0437 -5.4223 0
M  V30 87 H 3.1189 2.9563 1.1214 0
M  V30 88 H 3.6551 4.4048 1.9636 0
M  V30 89 H 2.6765 4.5736 0.5387 0
M  V30 90 H -0.6354 1.1017 -5.2532 0
M  V30 91 H -1.9139 1.5942 -3.4607 0
M  V30 92 H -0.387 6.5228 1.701 0
M  V30 93 H 0.3773 2.5216 -3.1825 0
M  V30 94 H -1.3525 -0.0828 -0.9577 0
M  V30 95 H -2.8244 -0.1235 -1.9438 0
M  V30 96 H -2.4612 1.2958 -1.02 0
M  V30 97 H -0.8355 6.0549 -0.4775 0
M  V30 98 H -1.3002 2.9966 -0.6527 0
M  V30 99 H 1.1558 3.7385 -0.597 0
M  V30 100 H -2.1844 4.9971 -1.9265 0
M  V30 101 H -1.3868 4.3731 -3.3806 0
M  V30 102 H -2.6808 3.4578 -2.5927 0
M  V30 103 H 3.836 0.9477 -0.601 0
M  V30 104 H 2.3307 0.5565 0.2355 0
M  V30 105 H 2.8568 -0.4416 -1.1548 0
M  V30 106 H 2.8547 4.704 -1.8761 0
M  V30 107 H 2.4307 6.0371 -2.9638 0
M  V30 108 H 2.2354 6.2532 -1.2159 0
M  V30 END ATOM
M  V30 BEGIN BOND
M  V30 1 2 1 2
M  V30 2 1 2 3
M  V30 3 1 2 4
M  V30 4 1 3 5
M  V30 5 2 4 6
M  V30 6 1 4 7
M  V30 7 2 5 8
M  V30 8 1 5 9
M  V30 9 1 6 10
M  V30 10 1 8 11
M  V30 11 1 8 12
M  V30 12 1 9 13
M  V30 13 2 9 14
M  V30 14 2 10 15
M  V30 15 2 12 16
M  V30 16 1 12 17
M  V30 17 1 13 18
M  V30 18 1 13 19
M  V30 19 1 14 20
M  V30 20 1 15 21
M  V30 21 1 16 22
M  V30 22 1 16 23
M  V30 23 2 17 24
M  V30 24 1 18 25
M  V30 25 2 19 26
M  V30 26 1 21 27
M  V30 27 1 21 28
M  V30 28 2 23 29
M  V30 29 1 23 30
M  V30 30 1 24 31
M  V30 31 2 25 32
M  V30 32 1 27 33
M  V30 33 1 27 34
M  V30 34 1 29 35
M  V30 35 2 31 36
M  V30 36 1 31 37
M  V30 37 1 32 38
M  V30 38 1 34 39
M  V30 39 1 34 40
M  V30 40 1 37 41
M  V30 41 1 37 42
M  V30 42 1 39 43
M  V30 43 1 39 44
M  V30 44 1 41 45
M  V30 45 1 44 46
M  V30 46 1 44 47
M  V30 47 2 45 48
M  V30 48 1 46 49
M  V30 49 1 46 50
M  V30 50 1 48 51
M  V30 51 1 49 52
M  V30 52 1 50 53
M  V30 53 1 51 54
M  V30 54 2 52 55
M  V30 55 1 52 56
M  V30 56 1 54 57
M  V30 57 1 14 17
M  V30 58 2 18 20
M  V30 59 1 24 29
M  V30 60 1 26 32
M  V30 61 1 35 37
M  V30 62 1 50 51
M  V30 63 1 3 58
M  V30 64 1 6 59
M  V30 65 1 7 60
M  V30 66 1 7 61
M  V30 67 1 7 62
M  V30 68 1 10 63
M  V30 69 1 11 64
M  V30 70 1 15 65
M  V30 71 1 19 66
M  V30 72 1 21 67
M  V30 73 1 22 68
M  V30 74 1 25 69
M  V30 75 1 26 70
M  V30 76 1 27 71
M  V30 77 1 28 72
M  V30 78 1 28 73
M  V30 79 1 28 74
M  V30 80 1 30 75
M  V30 81 1 30 76
M  V30 82 1 30 77
M  V30 83 1 33 78
M  V30 84 1 34 79
M  V30 85 1 38 80
M  V30 86 1 38 81
M  V30 87 1 38 82
M  V30 88 1 39 83
M  V30 89 1 40 84
M  V30 90 1 40 85
M  V30 91 1 40 86
M  V30 92 1 42 87
M  V30 93 1 42 88
M  V30 94 1 42 89
M  V30 95 1 43 90
M  V30 96 1 44 91
M  V30 97 1 45 92
M  V30 98 1 46 93
M  V30 99 1 47 94
M  V30 100 1 47 95
M  V30 101 1 47 96
M  V30 102 1 48 97
M  V30 103 1 50 98
M  V30 104 1 51 99
M  V30 105 1 53 100
M  V30 106 1 53 101
M  V30 107 1 53 102
M  V30 108 1 56 103
M  V30 109 1 56 104
M  V30 110 1 56 105
M  V30 111 1 57 106
M  V30 112 1 57 107
M  V30 113 1 57 108
M  V30 END BOND
M  V30 BEGIN COLLECTION
M  V30 MDLV30/STEABS ATOMS=(9 21 27 34 37 39 44 46 50 51)
M  V30 END COLLECTION
M  V30 END CTAB
M  END
>  <level_0>
2011

>  <index>
2011

>  <NO.>
2012

>  <Name>
rifaximin

>  <SMILES>
CO[C@H]1/C=C/O[C@@]2(C)Oc3c(C)c(O)c4c(O)c(c5c(nc6cc(C)ccn65)c4c3C2=O)NC(=O)/C(C)=C\C=C\[C@H](C)[C@H](O)[C@@H](C)[C@@H](O)[C@@H](C)[C@H](OC(C)=O)[C@@H]1C

>  <logBB>


>  <Class>
-1

>  <MW>
785.35

>  <nHBAcc>
12

>  <nHBDon>
5

>  <SLogP>
6.16

>  <TopoPSA>
198.38

>  <MMFF94 Energy>
184.99

$$$$
CO[C@H]1/C=C/O[C@@]2(C)Oc3c(C)c(O)c4c(O)c(cc(O)c4c3C2=O)NC(=O)/C(C)=C\C=C\[C@H](C)[C@H](O)[C@@H](C)[C@@H](O)[C@@H](C)[C@H](OC(C)=O)[C@@H]1C
Actelion Java MolfileCreator 2.0

  0  0  0  0  0  0              0 V3000
M  V30 BEGIN CTAB
M  V30 COUNTS 97 100 0 0 0
M  V30 BEGIN ATOM
M  V30 1 O -3.1789 -6.0467 1.7474 0
M  V30 2 C -2.9874 -5.0977 0.9883 0
M  V30 3 N -1.7656 -4.9344 0.3975 0
M  V30 4 C -4.0997 -4.1693 0.6636 0
M  V30 5 C -1.2625 -3.928 -0.4501 0
M  V30 6 C -4.4784 -3.2138 1.5346 0
M  V30 7 C -4.7737 -4.406 -0.651 0
M  V30 8 C -0.3181 -4.2855 -1.4243 0
M  V30 9 C -1.5628 -2.5916 -0.2896 0
M  V30 10 C -3.9012 -2.9819 2.8396 0
M  V30 11 O -0.0583 -5.6312 -1.571 0
M  V30 12 C 0.3729 -3.3314 -2.233 0
M  V30 13 C -0.9318 -1.6251 -1.0731 0
M  V30 14 C -3.6156 -1.8125 3.4385 0
M  V30 15 C 1.3563 -3.6783 -3.226 0
M  V30 16 C 0.0746 -1.9522 -2.0247 0
M  V30 17 O -1.3986 -0.3663 -0.8126 0
M  V30 18 C -3.7091 -0.3504 3.0015 0 CFG=1
M  V30 19 O 1.6059 -5.0088 -3.4658 0
M  V30 20 C 2.0667 -2.731 -3.9832 0
M  V30 21 C 0.8397 -1.034 -2.779 0
M  V30 22 C -2.257 0.1875 2.7524 0 CFG=2
M  V30 23 C -4.673 -0.0775 1.847 0
M  V30 24 C 1.8059 -1.4042 -3.7046 0
M  V30 25 C 3.087 -3.1196 -5.0119 0
M  V30 26 C 0.8908 0.4152 -2.7684 0
M  V30 27 O -1.5473 0.1764 3.9959 0
M  V30 28 C -2.1424 1.5837 2.0855 0 CFG=2
M  V30 29 O 2.4915 -0.3768 -4.3118 0
M  V30 30 O 0.1587 1.1324 -2.105 0
M  V30 31 C 2.0199 0.8435 -3.6965 0 CFG=2
M  V30 32 C -0.733 1.8613 1.4734 0 CFG=1
M  V30 33 C -2.6714 2.7336 2.9469 0
M  V30 34 O 3.0138 1.5934 -2.9818 0
M  V30 35 C 1.467 1.7422 -4.797 0
M  V30 36 O -1.0219 2.6252 0.2812 0
M  V30 37 C 0.3509 2.6346 2.2793 0 CFG=2
M  V30 38 C 3.8858 0.8428 -2.2448 0
M  V30 39 C 1.6655 2.8972 1.4516 0 CFG=2
M  V30 40 C 0.6862 2.0488 3.6513 0
M  V30 41 C 4.1534 1.0705 -0.954 0
M  V30 42 O 1.3387 3.8504 0.3997 0
M  V30 43 C 2.3358 1.6796 0.7346 0 CFG=1
M  V30 44 C 3.5551 2.1673 -0.1086 0 CFG=1
M  V30 45 C 1.3521 5.1699 0.7365 0
M  V30 46 C 2.7268 0.5606 1.7061 0
M  V30 47 O 4.5721 2.6324 0.7874 0
M  V30 48 O 1.6535 5.628 1.8287 0
M  V30 49 C 0.9452 5.9957 -0.4448 0
M  V30 50 C 5.3547 3.6837 0.2343 0
M  V30 51 H -1.104 -5.6538 0.6715 0
M  V30 52 H -5.3048 -2.569 1.253 0
M  V30 53 H -4.081 -4.2437 -1.4823 0
M  V30 54 H -5.1458 -5.4343 -0.7084 0
M  V30 55 H -5.6282 -3.7367 -0.797 0
M  V30 56 H -2.2513 -2.2512 0.4727 0
M  V30 57 H -3.6518 -3.8901 3.3941 0
M  V30 58 H -0.8888 -6.1035 -1.3868 0
M  V30 59 H -3.1633 -1.9098 4.4297 0
M  V30 60 H -0.9232 0.3278 -1.3124 0
M  V30 61 H -4.1204 0.1782 3.8734 0
M  V30 62 H 2.5495 -5.1328 -3.6519 0
M  V30 63 H -1.7438 -0.5332 2.1057 0
M  V30 64 H -4.8638 0.9947 1.7368 0
M  V30 65 H -5.6513 -0.5324 2.0351 0
M  V30 66 H -4.2818 -0.4448 0.8931 0
M  V30 67 H 3.2999 -2.3006 -5.7065 0
M  V30 68 H 2.726 -3.9558 -5.6198 0
M  V30 69 H 4.0223 -3.4073 -4.5216 0
M  V30 70 H -2.0663 0.6841 4.6429 0
M  V30 71 H -2.8098 1.5488 1.2142 0
M  V30 72 H -0.3157 0.9083 1.1374 0
M  V30 73 H -2.1205 2.8499 3.8819 0
M  V30 74 H -3.7222 2.5739 3.2089 0
M  V30 75 H -2.6145 3.6821 2.4022 0
M  V30 76 H 2.2593 2.0059 -5.5068 0
M  V30 77 H 0.6732 1.2433 -5.3637 0
M  V30 78 H 1.0703 2.6774 -4.3868 0
M  V30 79 H -0.2333 2.5995 -0.2924 0
M  V30 80 H -0.0713 3.6305 2.4725 0
M  V30 81 H 4.3747 0.0543 -2.8044 0
M  V30 82 H 2.415 3.3531 2.1121 0
M  V30 83 H -0.1061 2.2579 4.3738 0
M  V30 84 H 0.8319 0.9689 3.6257 0
M  V30 85 H 1.5943 2.5021 4.0636 0
M  V30 86 H 4.8757 0.4263 -0.4573 0
M  V30 87 H 1.6191 1.263 0.0195 0
M  V30 88 H 3.2371 2.9887 -0.7627 0
M  V30 89 H 3.3494 -0.2016 1.229 0
M  V30 90 H 1.84 0.0297 2.0603 0
M  V30 91 H 3.2766 0.9496 2.5689 0
M  V30 92 H 1.6574 5.85 -1.2609 0
M  V30 93 H -0.064 5.7189 -0.76 0
M  V30 94 H 0.9449 7.0532 -0.1655 0
M  V30 95 H 4.7298 4.5606 0.0387 0
M  V30 96 H 6.1204 3.9603 0.964 0
M  V30 97 H 5.8507 3.36 -0.6854 0
M  V30 END ATOM
M  V30 BEGIN BOND
M  V30 1 2 1 2
M  V30 2 1 2 3
M  V30 3 1 2 4
M  V30 4 1 3 5
M  V30 5 2 4 6
M  V30 6 1 4 7
M  V30 7 2 5 8
M  V30 8 1 5 9
M  V30 9 1 6 10
M  V30 10 1 8 11
M  V30 11 1 8 12
M  V30 12 2 9 13
M  V30 13 2 10 14
M  V30 14 2 12 15
M  V30 15 1 12 16
M  V30 16 1 13 17
M  V30 17 1 14 18
M  V30 18 1 15 19
M  V30 19 1 15 20
M  V30 20 2 16 21
M  V30 21 1 18 22
M  V30 22 1 18 23
M  V30 23 2 20 24
M  V30 24 1 20 25
M  V30 25 1 21 26
M  V30 26 1 22 27
M  V30 27 1 22 28
M  V30 28 1 24 29
M  V30 29 2 26 30
M  V30 30 1 26 31
M  V30 31 1 28 32
M  V30 32 1 28 33
M  V30 33 1 31 34
M  V30 34 1 31 35
M  V30 35 1 32 36
M  V30 36 1 32 37
M  V30 37 1 34 38
M  V30 38 1 37 39
M  V30 39 1 37 40
M  V30 40 2 38 41
M  V30 41 1 39 42
M  V30 42 1 39 43
M  V30 43 1 41 44
M  V30 44 1 42 45
M  V30 45 1 43 46
M  V30 46 1 44 47
M  V30 47 2 45 48
M  V30 48 1 45 49
M  V30 49 1 47 50
M  V30 50 1 13 16
M  V30 51 1 21 24
M  V30 52 1 29 31
M  V30 53 1 43 44
M  V30 54 1 3 51
M  V30 55 1 6 52
M  V30 56 1 7 53
M  V30 57 1 7 54
M  V30 58 1 7 55
M  V30 59 1 9 56
M  V30 60 1 10 57
M  V30 61 1 11 58
M  V30 62 1 14 59
M  V30 63 1 17 60
M  V30 64 1 18 61
M  V30 65 1 19 62
M  V30 66 1 22 63
M  V30 67 1 23 64
M  V30 68 1 23 65
M  V30 69 1 23 66
M  V30 70 1 25 67
M  V30 71 1 25 68
M  V30 72 1 25 69
M  V30 73 1 27 70
M  V30 74 1 28 71
M  V30 75 1 32 72
M  V30 76 1 33 73
M  V30 77 1 33 74
M  V30 78 1 33 75
M  V30 79 1 35 76
M  V30 80 1 35 77
M  V30 81 1 35 78
M  V30 82 1 36 79
M  V30 83 1 37 80
M  V30 84 1 38 81
M  V30 85 1 39 82
M  V30 86 1 40 83
M  V30 87 1 40 84
M  V30 88 1 40 85
M  V30 89 1 41 86
M  V30 90 1 43 87
M  V30 91 1 44 88
M  V30 92 1 46 89
M  V30 93 1 46 90
M  V30 94 1 46 91
M  V30 95 1 49 92
M  V30 96 1 49 93
M  V30 97 1 49 94
M  V30 98 1 50 95
M  V30 99 1 50 96
M  V30 100 1 50 97
M  V30 END BOND
M  V30 BEGIN COLLECTION
M  V30 MDLV30/STEABS ATOMS=(9 18 22 28 31 32 37 39 43 44)
M  V30 END COLLECTION
M  V30 END CTAB
M  END
>  <level_0>
2012

>  <index>
2012

>  <NO.>
2013

>  <Name>
rifamycin

>  <SMILES>
CO[C@H]1/C=C/O[C@@]2(C)Oc3c(C)c(O)c4c(O)c(cc(O)c4c3C2=O)NC(=O)/C(C)=C\C=C\[C@H](C)[C@H](O)[C@@H](C)[C@@H](O)[C@@H](C)[C@H](OC(C)=O)[C@@H]1C

>  <logBB>


>  <Class>
-1

>  <MW>
697.31

>  <nHBAcc>
12

>  <nHBDon>
6

>  <SLogP>
4.75

>  <TopoPSA>
201.31

>  <MMFF94 Energy>
145.96

$$$$
CO[C@H]1C[C@H](O[C@@H]2[C@@H](C)C(=O)O[C@H](C)[C@H](C)[C@H](OC(C)=O)[C@@H](C)C(=O)[C@]3(CO3)C[C@H](C)[C@H](O[C@@H]3O[C@H](C)C[C@H](N(C)C)[C@H]3OC(C)=O)[C@H]2C)O[C@@H](C)[C@@H]1OC(C)=O
Actelion Java MolfileCreator 2.0

  0  0  0  0  0  0              0 V3000
M  V30 BEGIN CTAB
M  V30 COUNTS 124 127 0 0 0
M  V30 BEGIN ATOM
M  V30 1 O 0.4766 3.4993 0.715 0
M  V30 2 C 0.0941 2.7277 -0.1522 0
M  V30 3 O 0.2902 2.9016 -1.4932 0
M  V30 4 C -0.6942 1.4506 0.1073 0 CFG=1
M  V30 5 C 1.0864 4.0386 -1.8831 0 CFG=1
M  V30 6 C -0.3003 0.8208 1.4831 0 CFG=1
M  V30 7 C -2.1841 1.727 -0.0697 0
M  V30 8 C 1.5481 3.8834 -3.3584 0 CFG=1
M  V30 9 C 0.2778 5.3302 -1.6873 0
M  V30 10 O -1.3391 1.0224 2.4717 0
M  V30 11 C -0.0886 -0.7322 1.3844 0 CFG=1
M  V30 12 C 2.4087 2.6257 -3.6977 0 CFG=2
M  V30 13 C 0.337 3.9098 -4.3187 0
M  V30 14 C -1.2766 2.2815 3.1477 0 CFG=2
M  V30 15 C 1.008 -1.2388 0.3882 0 CFG=1
M  V30 16 C 0.1422 -1.362 2.7686 0
M  V30 17 O 1.5953 1.441 -3.5755 0
M  V30 18 C 3.7929 2.4362 -3.0368 0 CFG=2
M  V30 19 O -0.2144 2.3472 4.0918 0
M  V30 20 C -2.6208 2.5454 3.817 0
M  V30 21 O 0.3313 -1.5129 -0.8563 0
M  V30 22 C 2.2167 -0.2923 0.1294 0 CFG=2
M  V30 23 C 1.825 0.4405 -4.4674 0
M  V30 24 C 3.7562 1.7517 -1.6783 0
M  V30 25 C 4.6064 3.7264 -2.9469 0
M  V30 26 C -0.3508 1.4629 5.205 0 CFG=2
M  V30 27 C -2.8487 1.5948 4.9883 0 CFG=1
M  V30 28 C -0.0345 -2.8983 -0.9831 0 CFG=2
M  V30 29 C 3.0127 -0.7152 -1.1251 0
M  V30 30 C 3.1344 -0.2228 1.3557 0
M  V30 31 O 2.7675 0.3926 -5.2457 0
M  V30 32 C 0.7498 -0.5952 -4.3843 0
M  V30 33 O 3.4428 2.3577 -0.6581 0
M  V30 34 C 4.0667 0.2772 -1.6052 0 CFG=2
M  V30 35 C -1.6649 1.6879 5.9667 0 CFG=1
M  V30 36 C 0.8706 1.6765 6.0943 0
M  V30 37 O -4.0469 1.9558 5.7006 0
M  V30 38 O 1.1353 -3.6349 -1.3395 0
M  V30 39 C -1.129 -3.0357 -2.0599 0 CFG=2
M  V30 40 O 5.3671 -9.0E-4 -1.0456 0
M  V30 41 C 5.1995 -0.3086 -2.4347 0
M  V30 42 O -1.8393 0.6529 6.9623 0
M  V30 43 C -5.2357 1.487 5.0788 0
M  V30 44 C 0.8874 -5.0335 -1.466 0 CFG=1
M  V30 45 O -2.3391 -2.412 -1.5683 0
M  V30 46 C -1.4212 -4.5385 -2.3252 0 CFG=2
M  V30 47 C -1.6814 1.0233 8.2606 0
M  V30 48 C -0.1052 -5.2852 -2.6018 0
M  V30 49 C 2.2211 -5.7138 -1.7438 0
M  V30 50 C -2.9256 -1.4992 -2.3853 0
M  V30 51 N -2.4868 -4.7434 -3.3407 0
M  V30 52 O -1.3156 2.1198 8.6572 0
M  V30 53 C -1.9959 -0.1339 9.1586 0
M  V30 54 O -2.4837 -1.0893 -3.4496 0
M  V30 55 C -4.2448 -1.0775 -1.8124 0
M  V30 56 C -3.0583 -6.0893 -3.2893 0
M  V30 57 C -2.0968 -4.4125 -4.7115 0
M  V30 58 H -0.3952 0.767 -0.6917 0
M  V30 59 H 1.9738 4.1046 -1.2486 0
M  V30 60 H 0.6276 1.2567 1.8688 0
M  V30 61 H -2.5249 2.5609 0.5517 0
M  V30 62 H -2.4014 1.9998 -1.1088 0
M  V30 63 H -2.7789 0.8422 0.1744 0
M  V30 64 H 2.1551 4.7656 -3.6028 0
M  V30 65 H -0.7339 5.2364 -2.0954 0
M  V30 66 H 0.7779 6.1871 -2.1496 0
M  V30 67 H 0.1541 5.5606 -0.6245 0
M  V30 68 H -1.055 -1.1429 1.055 0
M  V30 69 H 2.634 2.7568 -4.7683 0
M  V30 70 H -0.3945 3.1332 -4.0726 0
M  V30 71 H 0.6562 3.756 -5.3556 0
M  V30 72 H -0.1723 4.878 -4.2911 0
M  V30 73 H -1.1226 3.0823 2.4232 0
M  V30 74 H 1.4298 -2.1829 0.7599 0
M  V30 75 H 0.9951 -0.9154 3.285 0
M  V30 76 H 0.3202 -2.4398 2.686 0
M  V30 77 H -0.7429 -1.2458 3.402 0
M  V30 78 H 4.3554 1.7782 -3.7057 0
M  V30 79 H -2.6559 3.5781 4.1877 0
M  V30 80 H -3.4298 2.4437 3.0855 0
M  V30 81 H 1.8328 0.7048 -0.0701 0
M  V30 82 H 5.618 3.5165 -2.5814 0
M  V30 83 H 4.696 4.2006 -3.9297 0
M  V30 84 H 4.1596 4.4479 -2.2556 0
M  V30 85 H -0.307 0.4299 4.8496 0
M  V30 86 H -2.9456 0.5568 4.6426 0
M  V30 87 H -0.4248 -3.2541 -0.0194 0
M  V30 88 H 3.4707 -1.6966 -0.9422 0
M  V30 89 H 2.33 -0.8546 -1.9674 0
M  V30 90 H 3.9907 0.4352 1.184 0
M  V30 91 H 3.5219 -1.2141 1.614 0
M  V30 92 H 2.6118 0.175 2.2283 0
M  V30 93 H 0.1613 -0.4521 -3.4747 0
M  V30 94 H 0.0919 -0.5094 -5.2519 0
M  V30 95 H 1.2053 -1.5878 -4.3433 0
M  V30 96 H -1.6797 2.6874 6.4215 0
M  V30 97 H 1.7907 1.554 5.512 0
M  V30 98 H 0.8873 2.6953 6.497 0
M  V30 99 H 0.8962 0.9677 6.9268 0
M  V30 100 H -0.766 -2.5592 -2.9748 0
M  V30 101 H 5.7654 0.2962 -3.1304 0
M  V30 102 H 5.1529 -1.3547 -2.7155 0
M  V30 103 H -5.2158 0.3973 4.9822 0
M  V30 104 H -6.0829 1.7617 5.7135 0
M  V30 105 H -5.3773 1.9513 4.0996 0
M  V30 106 H 0.4912 -5.4147 -0.5161 0
M  V30 107 H -1.8316 -4.9261 -1.3804 0
M  V30 108 H -0.2795 -6.3617 -2.7042 0
M  V30 109 H 0.3317 -4.9253 -3.5416 0
M  V30 110 H 2.9273 -5.5128 -0.9308 0
M  V30 111 H 2.1026 -6.797 -1.8432 0
M  V30 112 H 2.6786 -5.3236 -2.6598 0
M  V30 113 H -3.0151 -0.4823 8.9721 0
M  V30 114 H -1.2766 -0.9391 8.99 0
M  V30 115 H -1.9267 0.1872 10.202 0
M  V30 116 H -5.0083 -1.8145 -2.0717 0
M  V30 117 H -4.1728 -0.9776 -0.7259 0
M  V30 118 H -4.5208 -0.1011 -2.2208 0
M  V30 119 H -2.3437 -6.8613 -3.5931 0
M  V30 120 H -3.4143 -6.3235 -2.2799 0
M  V30 121 H -3.9319 -6.1581 -3.9477 0
M  V30 122 H -1.3524 -5.1079 -5.1139 0
M  V30 123 H -1.6979 -3.3976 -4.7899 0
M  V30 124 H -2.9733 -4.4452 -5.3692 0
M  V30 END ATOM
M  V30 BEGIN BOND
M  V30 1 2 1 2
M  V30 2 1 2 3
M  V30 3 1 2 4
M  V30 4 1 3 5
M  V30 5 1 4 6
M  V30 6 1 4 7
M  V30 7 1 5 8
M  V30 8 1 5 9
M  V30 9 1 6 10
M  V30 10 1 6 11
M  V30 11 1 8 12
M  V30 12 1 8 13
M  V30 13 1 10 14
M  V30 14 1 11 15
M  V30 15 1 11 16
M  V30 16 1 12 17
M  V30 17 1 12 18
M  V30 18 1 14 19
M  V30 19 1 14 20
M  V30 20 1 15 21
M  V30 21 1 15 22
M  V30 22 1 17 23
M  V30 23 1 18 24
M  V30 24 1 18 25
M  V30 25 1 19 26
M  V30 26 1 20 27
M  V30 27 1 21 28
M  V30 28 1 22 29
M  V30 29 1 22 30
M  V30 30 2 23 31
M  V30 31 1 23 32
M  V30 32 2 24 33
M  V30 33 1 24 34
M  V30 34 1 26 35
M  V30 35 1 26 36
M  V30 36 1 27 37
M  V30 37 1 28 38
M  V30 38 1 28 39
M  V30 39 1 34 40
M  V30 40 1 34 41
M  V30 41 1 35 42
M  V30 42 1 37 43
M  V30 43 1 38 44
M  V30 44 1 39 45
M  V30 45 1 39 46
M  V30 46 1 42 47
M  V30 47 1 44 48
M  V30 48 1 44 49
M  V30 49 1 45 50
M  V30 50 1 46 51
M  V30 51 2 47 52
M  V30 52 1 47 53
M  V30 53 2 50 54
M  V30 54 1 50 55
M  V30 55 1 51 56
M  V30 56 1 51 57
M  V30 57 1 27 35
M  V30 58 1 29 34
M  V30 59 1 40 41
M  V30 60 1 46 48
M  V30 61 1 4 58
M  V30 62 1 5 59
M  V30 63 1 6 60
M  V30 64 1 7 61
M  V30 65 1 7 62
M  V30 66 1 7 63
M  V30 67 1 8 64
M  V30 68 1 9 65
M  V30 69 1 9 66
M  V30 70 1 9 67
M  V30 71 1 11 68
M  V30 72 1 12 69
M  V30 73 1 13 70
M  V30 74 1 13 71
M  V30 75 1 13 72
M  V30 76 1 14 73
M  V30 77 1 15 74
M  V30 78 1 16 75
M  V30 79 1 16 76
M  V30 80 1 16 77
M  V30 81 1 18 78
M  V30 82 1 20 79
M  V30 83 1 20 80
M  V30 84 1 22 81
M  V30 85 1 25 82
M  V30 86 1 25 83
M  V30 87 1 25 84
M  V30 88 1 26 85
M  V30 89 1 27 86
M  V30 90 1 28 87
M  V30 91 1 29 88
M  V30 92 1 29 89
M  V30 93 1 30 90
M  V30 94 1 30 91
M  V30 95 1 30 92
M  V30 96 1 32 93
M  V30 97 1 32 94
M  V30 98 1 32 95
M  V30 99 1 35 96
M  V30 100 1 36 97
M  V30 101 1 36 98
M  V30 102 1 36 99
M  V30 103 1 39 100
M  V30 104 1 41 101
M  V30 105 1 41 102
M  V30 106 1 43 103
M  V30 107 1 43 104
M  V30 108 1 43 105
M  V30 109 1 44 106
M  V30 110 1 46 107
M  V30 111 1 48 108
M  V30 112 1 48 109
M  V30 113 1 49 110
M  V30 114 1 49 111
M  V30 115 1 49 112
M  V30 116 1 53 113
M  V30 117 1 53 114
M  V30 118 1 53 115
M  V30 119 1 55 116
M  V30 120 1 55 117
M  V30 121 1 55 118
M  V30 122 1 56 119
M  V30 123 1 56 120
M  V30 124 1 56 121
M  V30 125 1 57 122
M  V30 126 1 57 123
M  V30 127 1 57 124
M  V30 END BOND
M  V30 BEGIN COLLECTION
M  V30 MDLV30/STEABS ATOMS=(18 4 5 6 8 11 12 14 15 18 22 26 27 28 34 35 39 44 46)
M  V30 END COLLECTION
M  V30 END CTAB
M  END
>  <level_0>
2014

>  <index>
2014

>  <NO.>
2015

>  <Name>
troleandomycin

>  <SMILES>
CO[C@H]1C[C@H](O[C@@H]2[C@@H](C)C(=O)O[C@H](C)[C@H](C)[C@H](OC(C)=O)[C@@H](C)C(=O)[C@]3(CO3)C[C@H](C)[C@H](O[C@@H]3O[C@H](C)C[C@H](N(C)C)[C@H]3OC(C)=O)[C@H]2C)O[C@@H](C)[C@@H]1OC(C)=O

>  <logBB>


>  <Class>
-1

>  <MW>
813.45

>  <nHBAcc>
16

>  <nHBDon>
0

>  <SLogP>
3.62

>  <TopoPSA>
184.19

>  <MMFF94 Energy>
100.42

$$$$
CO[C@H]1[C@@H](O)[C@H](N)[C@@H](O[C@H]2O[C@H](C(C)N)CC[C@H]2N)[C@H](O)[C@@H]1N(C)C(=O)CN
Actelion Java MolfileCreator 2.0

  0  0  0  0  0  0              0 V3000
M  V30 BEGIN CTAB
M  V30 COUNTS 63 64 0 0 0
M  V30 BEGIN ATOM
M  V30 1 O 2.5981 -1.0229 -2.3617 0
M  V30 2 C 3.5927 -0.6288 -1.7448 0
M  V30 3 N 3.4866 -0.0136 -0.4984 0
M  V30 4 C 5.0028 -0.8121 -2.3332 0
M  V30 5 C 2.1057 0.3286 -0.0234 0 CFG=2
M  V30 6 C 4.6423 0.3851 0.2974 0
M  V30 7 N 4.9288 -1.2495 -3.7384 0
M  V30 8 C 2.013 1.5719 0.9057 0 CFG=1
M  V30 9 C 1.4549 -0.9139 0.6399 0 CFG=1
M  V30 10 O 2.6228 2.6894 0.2237 0
M  V30 11 C 0.5367 1.8475 1.2847 0 CFG=1
M  V30 12 O 2.2161 -1.3136 1.7936 0
M  V30 13 C -0.0034 -0.6574 1.0584 0 CFG=1
M  V30 14 C 2.7524 3.8549 1.0234 0
M  V30 15 O -0.1927 2.281 0.1286 0
M  V30 16 C -0.1468 0.6166 1.9327 0 CFG=1
M  V30 17 O -0.8087 -0.5258 -0.1175 0
M  V30 18 N 0.3583 0.4087 3.3057 0
M  V30 19 C -1.5844 -1.6962 -0.3963 0 CFG=1
M  V30 20 O -2.7719 -1.698 0.3999 0
M  V30 21 C -1.9377 -1.761 -1.9074 0 CFG=2
M  V30 22 C -3.6357 -0.5741 0.13 0 CFG=2
M  V30 23 N -0.7524 -1.799 -2.7733 0
M  V30 24 C -2.851 -0.5894 -2.2753 0
M  V30 25 C -4.8483 -0.6812 1.0968 0
M  V30 26 C -4.0617 -0.5618 -1.3435 0
M  V30 27 N -4.3838 -0.8099 2.4924 0
M  V30 28 C -5.7932 0.5136 1.0081 0
M  V30 29 H 5.5509 0.1332 -2.2863 0
M  V30 30 H 5.5325 -1.573 -1.753 0
M  V30 31 H 1.5336 0.5652 -0.9309 0
M  V30 32 H 4.8597 1.439 0.1078 0
M  V30 33 H 5.5269 -0.2004 0.0409 0
M  V30 34 H 4.4404 0.2259 1.359 0
M  V30 35 H 4.4089 -0.5358 -4.2546 0
M  V30 36 H 4.2964 -2.0552 -3.7681 0
M  V30 37 H 2.5869 1.3869 1.8216 0
M  V30 38 H 1.4733 -1.7572 -0.0606 0
M  V30 39 H 0.492 2.6871 1.988 0
M  V30 40 H 3.0488 -1.6756 1.4358 0
M  V30 41 H -0.3587 -1.5036 1.6637 0
M  V30 42 H 1.7801 4.3286 1.1812 0
M  V30 43 H 3.3887 4.5648 0.4878 0
M  V30 44 H 3.2247 3.6221 1.9824 0
M  V30 45 H -1.1116 2.4417 0.4 0
M  V30 46 H -1.2175 0.8442 2.014 0
M  V30 47 H -0.2625 -0.2436 3.7896 0
M  V30 48 H 1.247 -0.1074 3.2484 0
M  V30 49 H -1.0099 -2.5968 -0.145 0
M  V30 50 H -2.5025 -2.6861 -2.08 0
M  V30 51 H -3.0889 0.3497 0.3601 0
M  V30 52 H -1.0009 -1.5581 -3.7309 0
M  V30 53 H -0.0814 -1.0838 -2.4734 0
M  V30 54 H -3.1936 -0.6799 -3.3132 0
M  V30 55 H -2.3092 0.362 -2.1992 0
M  V30 56 H -5.4072 -1.5965 0.8676 0
M  V30 57 H -4.6802 -1.4438 -1.5522 0
M  V30 58 H -4.6647 0.3234 -1.5695 0
M  V30 59 H -3.7089 -1.5803 2.5022 0
M  V30 60 H -3.8442 0.0157 2.7464 0
M  V30 61 H -6.2751 0.5663 0.0272 0
M  V30 62 H -6.5936 0.4363 1.753 0
M  V30 63 H -5.2637 1.4574 1.1794 0
M  V30 END ATOM
M  V30 BEGIN BOND
M  V30 1 2 1 2
M  V30 2 1 2 3
M  V30 3 1 2 4
M  V30 4 1 3 5
M  V30 5 1 3 6
M  V30 6 1 4 7
M  V30 7 1 5 8
M  V30 8 1 5 9
M  V30 9 1 8 10
M  V30 10 1 8 11
M  V30 11 1 9 12
M  V30 12 1 9 13
M  V30 13 1 10 14
M  V30 14 1 11 15
M  V30 15 1 11 16
M  V30 16 1 13 17
M  V30 17 1 16 18
M  V30 18 1 17 19
M  V30 19 1 19 20
M  V30 20 1 19 21
M  V30 21 1 20 22
M  V30 22 1 21 23
M  V30 23 1 21 24
M  V30 24 1 22 25
M  V30 25 1 22 26
M  V30 26 1 25 27
M  V30 27 1 25 28
M  V30 28 1 13 16
M  V30 29 1 24 26
M  V30 30 1 4 29
M  V30 31 1 4 30
M  V30 32 1 5 31
M  V30 33 1 6 32
M  V30 34 1 6 33
M  V30 35 1 6 34
M  V30 36 1 7 35
M  V30 37 1 7 36
M  V30 38 1 8 37
M  V30 39 1 9 38
M  V30 40 1 11 39
M  V30 41 1 12 40
M  V30 42 1 13 41
M  V30 43 1 14 42
M  V30 44 1 14 43
M  V30 45 1 14 44
M  V30 46 1 15 45
M  V30 47 1 16 46
M  V30 48 1 18 47
M  V30 49 1 18 48
M  V30 50 1 19 49
M  V30 51 1 21 50
M  V30 52 1 22 51
M  V30 53 1 23 52
M  V30 54 1 23 53
M  V30 55 1 24 54
M  V30 56 1 24 55
M  V30 57 1 25 56
M  V30 58 1 26 57
M  V30 59 1 26 58
M  V30 60 1 27 59
M  V30 61 1 27 60
M  V30 62 1 28 61
M  V30 63 1 28 62
M  V30 64 1 28 63
M  V30 END BOND
M  V30 BEGIN COLLECTION
M  V30 MDLV30/STEABS ATOMS=(9 5 8 9 11 13 16 19 21 22)
M  V30 END COLLECTION
M  V30 END CTAB
M  END
>  <level_0>
2015

>  <index>
2015

>  <NO.>
2016

>  <Name>
astromicin

>  <SMILES>
CO[C@H]1[C@@H](O)[C@H](N)[C@@H](O[C@H]2O[C@H](C(C)N)CC[C@H]2N)[C@H](O)[C@@H]1N(C)C(=O)CN

>  <logBB>


>  <Class>
-1

>  <MW>
405.26

>  <nHBAcc>
10

>  <nHBDon>
6

>  <SLogP>
-3.59

>  <TopoPSA>
192.54

>  <MMFF94 Energy>
205.6

$$$$
COc1cc(C(=O)OCCN2CCN(CCCN3c4ccccc4Sc4ccc(Cl)cc43)CC2)cc(OC)c1OC
Actelion Java MolfileCreator 2.0

  0  0  0  0  0  0              0 V3000
M  V30 BEGIN CTAB
M  V30 COUNTS 77 81 0 0 0
M  V30 BEGIN ATOM
M  V30 1 Cl 1.3734 -8.5875 -2.8293 0
M  V30 2 C 0.6466 -8.1859 -1.3215 0
M  V30 3 C 1.4225 -7.6207 -0.3071 0
M  V30 4 C -0.7038 -8.4309 -1.1219 0
M  V30 5 C 0.8635 -7.2703 0.9385 0
M  V30 6 C -1.274 -8.1247 0.111 0
M  V30 7 N 1.6594 -6.6792 1.9567 0
M  V30 8 C -0.5003 -7.5636 1.143 0
M  V30 9 C 1.3294 -6.6848 3.3394 0
M  V30 10 C 2.5651 -5.5874 1.5181 0
M  V30 11 S -1.3438 -7.2342 2.6762 0
M  V30 12 C 0.014 -6.9199 3.7853 0
M  V30 13 C 2.3195 -6.4895 4.3241 0
M  V30 14 C 1.8026 -4.261 1.3755 0
M  V30 15 C -0.2901 -6.8947 5.1581 0
M  V30 16 C 2.0127 -6.4754 5.6884 0
M  V30 17 C 2.7329 -3.1562 0.8607 0
M  V30 18 C 0.704 -6.6689 6.106 0
M  V30 19 N 2.099 -1.8282 0.8445 0
M  V30 20 C 1.0137 -1.7338 -0.154 0
M  V30 21 C 3.1065 -0.7873 0.5487 0
M  V30 22 C 0.4029 -0.313 -0.2403 0
M  V30 23 C 2.4903 0.6275 0.4835 0
M  V30 24 N 1.4136 0.7269 -0.5242 0
M  V30 25 C 0.8344 2.0808 -0.5126 0
M  V30 26 C -0.1465 2.3587 -1.6606 0
M  V30 27 O -0.5193 3.7473 -1.6081 0
M  V30 28 C -1.4069 4.1208 -2.5621 0
M  V30 29 O -1.8923 3.3904 -3.4111 0
M  V30 30 C -1.7305 5.5701 -2.4455 0
M  V30 31 C -1.1637 6.3851 -1.4529 0
M  V30 32 C -2.6349 6.1127 -3.3724 0
M  V30 33 C -1.4978 7.7388 -1.3803 0
M  V30 34 C -2.9807 7.4632 -3.3148 0
M  V30 35 O -1.0035 8.6181 -0.4517 0
M  V30 36 C -2.4212 8.2626 -2.3028 0
M  V30 37 O -3.8499 8.0864 -4.1719 0
M  V30 38 C 0.0623 8.171 0.3749 0
M  V30 39 O -2.7208 9.6072 -2.2627 0
M  V30 40 C -4.3167 7.3412 -5.2888 0
M  V30 41 C -3.8644 9.8243 -1.4378 0
M  V30 42 H 2.4842 -7.4911 -0.492 0
M  V30 43 H -1.3126 -8.8693 -1.9076 0
M  V30 44 H -2.3305 -8.334 0.2685 0
M  V30 45 H 3.0549 -5.8222 0.5677 0
M  V30 46 H 3.4034 -5.4511 2.2089 0
M  V30 47 H 3.3639 -6.3784 4.0487 0
M  V30 48 H 1.3805 -3.9673 2.3446 0
M  V30 49 H 0.9611 -4.4009 0.6879 0
M  V30 50 H -1.3108 -7.0601 5.497 0
M  V30 51 H 2.8016 -6.3222 6.4204 0
M  V30 52 H 3.6029 -3.1187 1.5295 0
M  V30 53 H 3.1095 -3.4203 -0.136 0
M  V30 54 H 0.4575 -6.6586 7.1643 0
M  V30 55 H 0.1998 -2.418 0.1091 0
M  V30 56 H 1.3807 -2.025 -1.1474 0
M  V30 57 H 3.8713 -0.7864 1.335 0
M  V30 58 H 3.6144 -1.002 -0.4014 0
M  V30 59 H -0.3487 -0.3304 -1.0371 0
M  V30 60 H -0.1199 -0.0926 0.7003 0
M  V30 61 H 3.291 1.3338 0.232 0
M  V30 62 H 2.1135 0.9011 1.4787 0
M  V30 63 H 1.644 2.8186 -0.5975 0
M  V30 64 H 0.3423 2.2958 0.4457 0
M  V30 65 H 0.3339 2.1515 -2.6242 0
M  V30 66 H -1.0481 1.7452 -1.5563 0
M  V30 67 H -0.468 5.9491 -0.7445 0
M  V30 68 H -3.0559 5.4565 -4.1289 0
M  V30 69 H -0.275 7.3841 1.0572 0
M  V30 70 H 0.3921 9.0189 0.9831 0
M  V30 71 H 0.9171 7.8376 -0.2228 0
M  V30 72 H -3.485 6.9932 -5.9103 0
M  V30 73 H -4.9332 8.007 -5.9006 0
M  V30 74 H -4.9479 6.5065 -4.967 0
M  V30 75 H -4.7495 9.3191 -1.8397 0
M  V30 76 H -4.0675 10.8994 -1.424 0
M  V30 77 H -3.6806 9.5026 -0.4068 0
M  V30 END ATOM
M  V30 BEGIN BOND
M  V30 1 1 1 2
M  V30 2 2 2 3
M  V30 3 1 2 4
M  V30 4 1 3 5
M  V30 5 2 4 6
M  V30 6 1 5 7
M  V30 7 2 5 8
M  V30 8 1 7 9
M  V30 9 1 7 10
M  V30 10 1 8 11
M  V30 11 2 9 12
M  V30 12 1 9 13
M  V30 13 1 10 14
M  V30 14 1 12 15
M  V30 15 2 13 16
M  V30 16 1 14 17
M  V30 17 2 15 18
M  V30 18 1 17 19
M  V30 19 1 19 20
M  V30 20 1 19 21
M  V30 21 1 20 22
M  V30 22 1 21 23
M  V30 23 1 22 24
M  V30 24 1 24 25
M  V30 25 1 25 26
M  V30 26 1 26 27
M  V30 27 1 27 28
M  V30 28 2 28 29
M  V30 29 1 28 30
M  V30 30 2 30 31
M  V30 31 1 30 32
M  V30 32 1 31 33
M  V30 33 2 32 34
M  V30 34 1 33 35
M  V30 35 2 33 36
M  V30 36 1 34 37
M  V30 37 1 35 38
M  V30 38 1 36 39
M  V30 39 1 37 40
M  V30 40 1 39 41
M  V30 41 1 6 8
M  V30 42 1 11 12
M  V30 43 1 16 18
M  V30 44 1 23 24
M  V30 45 1 34 36
M  V30 46 1 3 42
M  V30 47 1 4 43
M  V30 48 1 6 44
M  V30 49 1 10 45
M  V30 50 1 10 46
M  V30 51 1 13 47
M  V30 52 1 14 48
M  V30 53 1 14 49
M  V30 54 1 15 50
M  V30 55 1 16 51
M  V30 56 1 17 52
M  V30 57 1 17 53
M  V30 58 1 18 54
M  V30 59 1 20 55
M  V30 60 1 20 56
M  V30 61 1 21 57
M  V30 62 1 21 58
M  V30 63 1 22 59
M  V30 64 1 22 60
M  V30 65 1 23 61
M  V30 66 1 23 62
M  V30 67 1 25 63
M  V30 68 1 25 64
M  V30 69 1 26 65
M  V30 70 1 26 66
M  V30 71 1 31 67
M  V30 72 1 32 68
M  V30 73 1 38 69
M  V30 74 1 38 70
M  V30 75 1 38 71
M  V30 76 1 40 72
M  V30 77 1 40 73
M  V30 78 1 40 74
M  V30 79 1 41 75
M  V30 80 1 41 76
M  V30 81 1 41 77
M  V30 END BOND
M  V30 END CTAB
M  END
>  <level_0>
2024

>  <index>
2024

>  <NO.>
2025

>  <Name>
metofenazate

>  <SMILES>
COc1cc(C(=O)OCCN2CCN(CCCN3c4ccccc4Sc4ccc(Cl)cc43)CC2)cc(OC)c1OC

>  <logBB>


>  <Class>
1

>  <MW>
597.21

>  <nHBAcc>
9

>  <nHBDon>
0

>  <SLogP>
5.83

>  <TopoPSA>
63.71

>  <MMFF94 Energy>
202.79

$$$$
COc1cc([C@@H]2c3cc4c(cc3[C@@H](OC3OC5COC(c6cccs6)OC5C(O)C3O)[C@H]3COC(=O)[C@H]23)OCO4)cc(OC)c1O
Actelion Java MolfileCreator 2.0

  0  0  0  0  0  0              0 V3000
M  V30 BEGIN CTAB
M  V30 COUNTS 78 85 0 0 0
M  V30 BEGIN ATOM
M  V30 1 S 5.3293 2.0472 7.3024 0
M  V30 2 C 4.196 0.9642 6.6024 0
M  V30 3 C 5.2899 1.2268 8.8014 0
M  V30 4 C 3.7988 0.0013 7.5135 0
M  V30 5 C 3.7599 1.1529 5.1821 0
M  V30 6 C 4.4315 0.1514 8.7804 0
M  V30 7 O 2.4434 1.7129 5.2416 0
M  V30 8 O 3.7547 -0.1383 4.5698 0
M  V30 9 C 1.9239 1.8658 3.9192 0
M  V30 10 C 3.2677 -0.0735 3.2301 0
M  V30 11 C 0.5134 2.4552 3.9805 0
M  V30 12 C 1.858 0.5081 3.2218 0
M  V30 13 O 0.561 3.7746 4.5441 0
M  V30 14 C -0.0739 2.5297 2.5676 0
M  V30 15 O 1.346 0.6218 1.899 0
M  V30 16 O 0.6686 3.5205 1.8314 0
M  V30 17 C 0.0084 1.139 1.8848 0
M  V30 18 O -0.4921 1.2498 0.5498 0
M  V30 19 C -0.5455 0.0147 -0.1605 0 CFG=2
M  V30 20 C 0.2307 0.2071 -1.4646 0
M  V30 21 C -1.9983 -0.3415 -0.4559 0 CFG=2
M  V30 22 C -0.42 0.3873 -2.7295 0
M  V30 23 C 1.6369 0.2432 -1.4035 0
M  V30 24 C -2.5708 0.5955 -1.503 0 CFG=1
M  V30 25 C -3.014 -0.1907 0.6465 0
M  V30 26 C 0.348 0.5954 -3.8931 0
M  V30 27 C -1.9502 0.3195 -2.8723 0 CFG=2
M  V30 28 C 2.3455 0.447 -2.5677 0
M  V30 29 C -4.0452 0.4067 -1.3035 0
M  V30 30 O -4.2661 -0.1004 -0.0466 0
M  V30 31 C 1.7196 0.6195 -3.7764 0
M  V30 32 C -2.43 -0.9662 -3.5568 0
M  V30 33 O 3.7005 0.5018 -2.6716 0
M  V30 34 O -4.9313 0.7195 -2.0799 0
M  V30 35 O 2.5997 0.804 -4.796 0
M  V30 36 C -1.7388 -2.189 -3.4512 0
M  V30 37 C -3.6089 -0.9265 -4.3282 0
M  V30 38 C 3.8528 0.7552 -4.0837 0
M  V30 39 C -2.2053 -3.3335 -4.0994 0
M  V30 40 C -4.1099 -2.0709 -4.9556 0
M  V30 41 O -1.6078 -4.5695 -4.0762 0
M  V30 42 C -3.3915 -3.2628 -4.8405 0
M  V30 43 O -5.2548 -2.1094 -5.706 0
M  V30 44 C -0.3076 -4.6391 -3.5022 0
M  V30 45 O -3.8518 -4.3995 -5.4614 0
M  V30 46 C -6.1812 -1.0485 -5.5098 0
M  V30 47 H 5.8978 1.5726 9.6263 0
M  V30 48 H 3.0864 -0.7781 7.271 0
M  V30 49 H 4.4385 1.823 4.6378 0
M  V30 50 H 4.2656 -0.4965 9.6322 0
M  V30 51 H 2.5744 2.5641 3.3742 0
M  V30 52 H 3.2606 -1.0869 2.8151 0
M  V30 53 H 3.9539 0.5139 2.6077 0
M  V30 54 H -0.1274 1.8503 4.6328 0
M  V30 55 H 1.2191 -0.1726 3.8023 0
M  V30 56 H 1.0686 3.6916 5.3764 0
M  V30 57 H -1.1104 2.884 2.5877 0
M  V30 58 H 0.6666 4.3162 2.4004 0
M  V30 59 H -0.6379 0.4396 2.4316 0
M  V30 60 H -0.0935 -0.8061 0.4113 0
M  V30 61 H -2.0489 -1.3785 -0.8128 0
M  V30 62 H 2.1655 0.1309 -0.4632 0
M  V30 63 H -2.3705 1.6418 -1.2249 0
M  V30 64 H -2.8953 0.713 1.2523 0
M  V30 65 H -3.0284 -1.0612 1.3087 0
M  V30 66 H -0.1184 0.7264 -4.8648 0
M  V30 67 H -2.235 1.1563 -3.5274 0
M  V30 68 H -0.8276 -2.232 -2.8647 0
M  V30 69 H -4.1315 0.0214 -4.4288 0
M  V30 70 H 4.4707 -0.0395 -4.5167 0
M  V30 71 H 4.3695 1.7131 -4.215 0
M  V30 72 H 0.3866 -3.957 -4.0044 0
M  V30 73 H 0.0652 -5.6579 -3.6441 0
M  V30 74 H -0.3446 -4.4456 -2.4252 0
M  V30 75 H -3.1971 -5.0895 -5.2482 0
M  V30 76 H -6.4163 -0.9094 -4.449 0
M  V30 77 H -7.1094 -1.3169 -6.0234 0
M  V30 78 H -5.811 -0.1209 -5.9579 0
M  V30 END ATOM
M  V30 BEGIN BOND
M  V30 1 1 1 2
M  V30 2 1 1 3
M  V30 3 2 2 4
M  V30 4 1 2 5
M  V30 5 2 3 6
M  V30 6 1 5 7
M  V30 7 1 5 8
M  V30 8 1 7 9
M  V30 9 1 8 10
M  V30 10 1 9 11
M  V30 11 1 9 12
M  V30 12 1 11 13
M  V30 13 1 11 14
M  V30 14 1 12 15
M  V30 15 1 14 16
M  V30 16 1 14 17
M  V30 17 1 17 18
M  V30 18 1 18 19
M  V30 19 1 19 20
M  V30 20 1 19 21
M  V30 21 2 20 22
M  V30 22 1 20 23
M  V30 23 1 21 24
M  V30 24 1 21 25
M  V30 25 1 22 26
M  V30 26 1 22 27
M  V30 27 2 23 28
M  V30 28 1 24 29
M  V30 29 1 25 30
M  V30 30 2 26 31
M  V30 31 1 27 32
M  V30 32 1 28 33
M  V30 33 2 29 34
M  V30 34 1 31 35
M  V30 35 2 32 36
M  V30 36 1 32 37
M  V30 37 1 33 38
M  V30 38 1 36 39
M  V30 39 2 37 40
M  V30 40 1 39 41
M  V30 41 2 39 42
M  V30 42 1 40 43
M  V30 43 1 41 44
M  V30 44 1 42 45
M  V30 45 1 43 46
M  V30 46 1 4 6
M  V30 47 1 10 12
M  V30 48 1 15 17
M  V30 49 1 24 27
M  V30 50 1 28 31
M  V30 51 1 29 30
M  V30 52 1 35 38
M  V30 53 1 40 42
M  V30 54 1 3 47
M  V30 55 1 4 48
M  V30 56 1 5 49
M  V30 57 1 6 50
M  V30 58 1 9 51
M  V30 59 1 10 52
M  V30 60 1 10 53
M  V30 61 1 11 54
M  V30 62 1 12 55
M  V30 63 1 13 56
M  V30 64 1 14 57
M  V30 65 1 16 58
M  V30 66 1 17 59
M  V30 67 1 19 60
M  V30 68 1 21 61
M  V30 69 1 23 62
M  V30 70 1 24 63
M  V30 71 1 25 64
M  V30 72 1 25 65
M  V30 73 1 26 66
M  V30 74 1 27 67
M  V30 75 1 36 68
M  V30 76 1 37 69
M  V30 77 1 38 70
M  V30 78 1 38 71
M  V30 79 1 44 72
M  V30 80 1 44 73
M  V30 81 1 44 74
M  V30 82 1 45 75
M  V30 83 1 46 76
M  V30 84 1 46 77
M  V30 85 1 46 78
M  V30 END BOND
M  V30 BEGIN COLLECTION
M  V30 MDLV30/STEABS ATOMS=(4 19 21 24 27)
M  V30 END COLLECTION
M  V30 END CTAB
M  END
>  <level_0>
2027

>  <index>
2027

>  <NO.>
2028

>  <Name>
teniposide

>  <SMILES>
COc1cc([C@@H]2c3cc4c(cc3[C@@H](OC3OC5COC(c6cccs6)OC5C(O)C3O)[C@H]3COC(=O)[C@H]23)OCO4)cc(OC)c1O

>  <logBB>


>  <Class>
1

>  <MW>
656.16

>  <nHBAcc>
14

>  <nHBDon>
3

>  <SLogP>
2.75

>  <TopoPSA>
160.83

>  <MMFF94 Energy>
141.38

$$$$
COc1ccc(-c2cc(=O)c3c(O)cc(O[C@@H]4O[C@H](CO[C@@H]5O[C@@H](C)[C@H](O)[C@@H](O)[C@H]5O)[C@@H](O)[C@H](O)[C@H]4O)cc3o2)cc1O
Actelion Java MolfileCreator 2.0

  0  0  0  0  0  0              0 V3000
M  V30 BEGIN CTAB
M  V30 COUNTS 75 79 0 0 0
M  V30 BEGIN ATOM
M  V30 1 O 2.4104 -1.928 -3.2149 0
M  V30 2 C 2.5382 -0.7584 -2.8803 0
M  V30 3 C 1.927 -0.1524 -1.6745 0
M  V30 4 C 3.359 0.1333 -3.7198 0
M  V30 5 C 2.1722 1.1992 -1.4331 0
M  V30 6 C 1.1191 -0.8627 -0.7778 0
M  V30 7 C 3.5204 1.4151 -3.3682 0
M  V30 8 O 2.942 1.9892 -2.251 0
M  V30 9 C 1.6266 1.8312 -0.3127 0
M  V30 10 O 0.8468 -2.1849 -0.9845 0
M  V30 11 C 0.5734 -0.2306 0.348 0
M  V30 12 C 4.3273 2.3477 -4.1786 0
M  V30 13 C 0.8314 1.1198 0.5872 0
M  V30 14 C 3.8595 3.6453 -4.4271 0
M  V30 15 C 5.5788 1.9779 -4.692 0
M  V30 16 O 0.3644 1.8614 1.6366 0
M  V30 17 C 4.6246 4.5372 -5.1834 0
M  V30 18 C 6.3426 2.8765 -5.4493 0
M  V30 19 C -0.2986 1.1745 2.7095 0 CFG=2
M  V30 20 O 4.1517 5.8011 -5.424 0
M  V30 21 C 5.871 4.1653 -5.7039 0
M  V30 22 O -1.5809 0.6939 2.3049 0
M  V30 23 C -0.467 2.2077 3.842 0 CFG=2
M  V30 24 O 6.5351 5.1182 -6.4292 0
M  V30 25 C -2.2639 -0.004 3.3626 0 CFG=1
M  V30 26 O 0.7986 2.6701 4.3409 0
M  V30 27 C -1.242 1.5835 5.0011 0 CFG=2
M  V30 28 C 7.7916 4.7604 -6.986 0
M  V30 29 C -2.5544 0.9621 4.5166 0 CFG=2
M  V30 30 C -3.5534 -0.6036 2.7878 0
M  V30 31 O -1.536 2.576 5.997 0
M  V30 32 O -3.1832 0.2891 5.6078 0
M  V30 33 O -3.193 -1.6082 1.826 0
M  V30 34 C -4.3374 -2.1967 1.2173 0 CFG=2
M  V30 35 O -5.0835 -3.013 2.1298 0
M  V30 36 C -3.9079 -3.0476 0.0078 0 CFG=2
M  V30 37 C -4.3192 -4.1048 2.6681 0 CFG=2
M  V30 38 O -5.0495 -3.5456 -0.7194 0
M  V30 39 C -3.0808 -4.2447 0.483 0 CFG=1
M  V30 40 C -3.8305 -5.0434 1.5554 0 CFG=1
M  V30 41 C -5.214 -4.8401 3.661 0
M  V30 42 O -2.7893 -5.1239 -0.6162 0
M  V30 43 O -2.965 -6.0552 2.0775 0
M  V30 44 H 3.7924 -0.3104 -4.6071 0
M  V30 45 H 1.826 2.8866 -0.1418 0
M  V30 46 H 0.2276 -2.5239 -0.3188 0
M  V30 47 H -0.061 -0.8045 1.0149 0
M  V30 48 H 2.8944 3.9532 -4.0342 0
M  V30 49 H 5.9858 0.9869 -4.4996 0
M  V30 50 H 7.3038 2.5367 -5.8203 0
M  V30 51 H 0.341 0.3503 3.0553 0
M  V30 52 H 3.2778 5.8996 -5.0161 0
M  V30 53 H -0.9988 3.095 3.4757 0
M  V30 54 H -1.628 -0.834 3.6998 0
M  V30 55 H 1.2924 2.9993 3.5644 0
M  V30 56 H -0.6298 0.8283 5.5104 0
M  V30 57 H 8.5171 4.5209 -6.2015 0
M  V30 58 H 8.1721 5.6258 -7.5372 0
M  V30 59 H 7.6885 3.9332 -7.696 0
M  V30 60 H -3.2346 1.7582 4.188 0
M  V30 61 H -4.1549 -1.0621 3.5795 0
M  V30 62 H -4.1382 0.1743 2.2831 0
M  V30 63 H -0.6867 3.0349 6.1611 0
M  V30 64 H -3.1656 0.9278 6.3505 0
M  V30 65 H -5.0167 -1.4118 0.8628 0
M  V30 66 H -3.3146 -2.4552 -0.6973 0
M  V30 67 H -3.4648 -3.7087 3.2317 0
M  V30 68 H -5.7834 -3.6353 -0.0795 0
M  V30 69 H -2.1133 -3.9129 0.878 0
M  V30 70 H -4.6816 -5.5605 1.0946 0
M  V30 71 H -5.5654 -4.1516 4.4376 0
M  V30 72 H -6.1075 -5.2347 3.1646 0
M  V30 73 H -4.686 -5.6673 4.1445 0
M  V30 74 H -3.5453 -5.0388 -1.2341 0
M  V30 75 H -2.5515 -6.473 1.2949 0
M  V30 END ATOM
M  V30 BEGIN BOND
M  V30 1 2 1 2
M  V30 2 1 2 3
M  V30 3 1 2 4
M  V30 4 2 3 5
M  V30 5 1 3 6
M  V30 6 2 4 7
M  V30 7 1 5 8
M  V30 8 1 5 9
M  V30 9 1 6 10
M  V30 10 2 6 11
M  V30 11 1 7 12
M  V30 12 2 9 13
M  V30 13 2 12 14
M  V30 14 1 12 15
M  V30 15 1 13 16
M  V30 16 1 14 17
M  V30 17 2 15 18
M  V30 18 1 16 19
M  V30 19 1 17 20
M  V30 20 2 17 21
M  V30 21 1 19 22
M  V30 22 1 19 23
M  V30 23 1 21 24
M  V30 24 1 22 25
M  V30 25 1 23 26
M  V30 26 1 23 27
M  V30 27 1 24 28
M  V30 28 1 25 29
M  V30 29 1 25 30
M  V30 30 1 27 31
M  V30 31 1 29 32
M  V30 32 1 30 33
M  V30 33 1 33 34
M  V30 34 1 34 35
M  V30 35 1 34 36
M  V30 36 1 35 37
M  V30 37 1 36 38
M  V30 38 1 36 39
M  V30 39 1 37 40
M  V30 40 1 37 41
M  V30 41 1 39 42
M  V30 42 1 40 43
M  V30 43 1 7 8
M  V30 44 1 11 13
M  V30 45 1 18 21
M  V30 46 1 27 29
M  V30 47 1 39 40
M  V30 48 1 4 44
M  V30 49 1 9 45
M  V30 50 1 10 46
M  V30 51 1 11 47
M  V30 52 1 14 48
M  V30 53 1 15 49
M  V30 54 1 18 50
M  V30 55 1 19 51
M  V30 56 1 20 52
M  V30 57 1 23 53
M  V30 58 1 25 54
M  V30 59 1 26 55
M  V30 60 1 27 56
M  V30 61 1 28 57
M  V30 62 1 28 58
M  V30 63 1 28 59
M  V30 64 1 29 60
M  V30 65 1 30 61
M  V30 66 1 30 62
M  V30 67 1 31 63
M  V30 68 1 32 64
M  V30 69 1 34 65
M  V30 70 1 36 66
M  V30 71 1 37 67
M  V30 72 1 38 68
M  V30 73 1 39 69
M  V30 74 1 40 70
M  V30 75 1 41 71
M  V30 76 1 41 72
M  V30 77 1 41 73
M  V30 78 1 42 74
M  V30 79 1 43 75
M  V30 END BOND
M  V30 BEGIN COLLECTION
M  V30 MDLV30/STEABS ATOMS=(10 19 23 25 27 29 34 36 37 39 40)
M  V30 END COLLECTION
M  V30 END CTAB
M  END
>  <level_0>
2040

>  <index>
2040

>  <NO.>
2041

>  <Name>
diosmin

>  <SMILES>
COc1ccc(-c2cc(=O)c3c(O)cc(O[C@@H]4O[C@H](CO[C@@H]5O[C@@H](C)[C@H](O)[C@@H](O)[C@H]5O)[C@@H](O)[C@H](O)[C@H]4O)cc3o2)cc1O

>  <logBB>


>  <Class>
-1

>  <MW>
608.17

>  <nHBAcc>
15

>  <nHBDon>
8

>  <SLogP>
-1.09

>  <TopoPSA>
238.2

>  <MMFF94 Energy>
237.85

$$$$
COc1ccc(C[C@H](N)C(=O)NC2[C@@H](CO)O[C@@H](n3cnc4c(N(C)C)ncnc43)[C@@H]2O)cc1
Actelion Java MolfileCreator 2.0

  0  0  0  0  0  0              0 V3000
M  V30 BEGIN CTAB
M  V30 COUNTS 63 66 0 0 0
M  V30 BEGIN ATOM
M  V30 1 O -1.1916 0.9532 1.9071 0
M  V30 2 C -0.6039 -0.0645 2.2743 0
M  V30 3 N -0.0241 -0.9277 1.3683 0
M  V30 4 C -0.4538 -0.4779 3.7537 0 CFG=1
M  V30 5 C -0.1452 -0.708 -0.0802 0
M  V30 6 N -0.5015 0.719 4.6155 0
M  V30 7 C -1.4716 -1.5765 4.1241 0
M  V30 8 C 0.853 0.3268 -0.612 0 CFG=1
M  V30 9 C 0.2487 -1.9581 -0.8601 0 CFG=2
M  V30 10 C -2.9068 -1.1237 4.2746 0
M  V30 11 O 1.1315 1.3659 0.325 0
M  V30 12 C 2.1018 -0.5168 -0.9381 0 CFG=1
M  V30 13 O 1.6854 -1.9132 -0.9342 0
M  V30 14 C -0.3523 -2.0218 -2.2708 0
M  V30 15 C -3.4511 -0.8973 5.5463 0
M  V30 16 C -3.7187 -0.9244 3.1529 0
M  V30 17 N 2.7365 -0.2442 -2.2194 0
M  V30 18 O -1.7681 -2.0824 -2.1989 0
M  V30 19 C -4.7774 -0.4744 5.6945 0
M  V30 20 C -5.0418 -0.5015 3.3044 0
M  V30 21 C 3.0046 0.9837 -2.7627 0
M  V30 22 C 3.2436 -1.183 -3.0811 0
M  V30 23 C -5.579 -0.273 4.5721 0
M  V30 24 N 2.7142 2.181 -2.238 0
M  V30 25 C 3.6302 0.7279 -3.9757 0
M  V30 26 N 3.7607 -0.6383 -4.1596 0
M  V30 27 O -6.8838 0.1359 4.5762 0
M  V30 28 C 3.1136 3.1755 -3.0442 0
M  V30 29 C 4.0081 1.8471 -4.7652 0
M  V30 30 C -7.4655 0.4166 5.8427 0
M  V30 31 N 3.7219 3.0795 -4.2428 0
M  V30 32 N 4.6336 1.7787 -6.003 0
M  V30 33 C 5.0708 0.5043 -6.5361 0
M  V30 34 C 5.081 3.0144 -6.6132 0
M  V30 35 H 0.5789 -1.6696 1.7039 0
M  V30 36 H 0.5501 -0.9063 3.8652 0
M  V30 37 H -1.1781 -0.3956 -0.2689 0
M  V30 38 H -1.2327 1.3338 4.2397 0
M  V30 39 H -0.8201 0.4632 5.5473 0
M  V30 40 H -1.4432 -2.3831 3.3795 0
M  V30 41 H -1.153 -2.0426 5.0665 0
M  V30 42 H 0.4423 0.7928 -1.5151 0
M  V30 43 H -0.0407 -2.8654 -0.3167 0
M  V30 44 H 0.2767 1.6434 0.7185 0
M  V30 45 H 2.8849 -0.401 -0.1798 0
M  V30 46 H -0.0663 -1.1563 -2.8766 0
M  V30 47 H 0.0159 -2.9139 -2.7891 0
M  V30 48 H -2.8482 -1.0501 6.4389 0
M  V30 49 H -3.3353 -1.089 2.1485 0
M  V30 50 H -2.101 -2.1754 -3.1101 0
M  V30 51 H -5.1517 -0.3136 6.6998 0
M  V30 52 H -5.6588 -0.3448 2.4228 0
M  V30 53 H 3.2074 -2.2459 -2.8759 0
M  V30 54 H 2.9215 4.1839 -2.6896 0
M  V30 55 H -7.5018 -0.4816 6.4678 0
M  V30 56 H -8.4954 0.7449 5.6724 0
M  V30 57 H -6.9364 1.2305 6.3495 0
M  V30 58 H 5.8118 0.0355 -5.8796 0
M  V30 59 H 4.2243 -0.1754 -6.6797 0
M  V30 60 H 5.5415 0.624 -7.5183 0
M  V30 61 H 5.8791 3.4749 -6.0203 0
M  V30 62 H 4.2567 3.7291 -6.718 0
M  V30 63 H 5.4764 2.8431 -7.6202 0
M  V30 END ATOM
M  V30 BEGIN BOND
M  V30 1 2 1 2
M  V30 2 1 2 3
M  V30 3 1 2 4
M  V30 4 1 3 5
M  V30 5 1 4 6
M  V30 6 1 4 7
M  V30 7 1 5 8
M  V30 8 1 5 9
M  V30 9 1 7 10
M  V30 10 1 8 11
M  V30 11 1 8 12
M  V30 12 1 9 13
M  V30 13 1 9 14
M  V30 14 2 10 15
M  V30 15 1 10 16
M  V30 16 1 12 17
M  V30 17 1 14 18
M  V30 18 1 15 19
M  V30 19 2 16 20
M  V30 20 1 17 21
M  V30 21 1 17 22
M  V30 22 2 19 23
M  V30 23 2 21 24
M  V30 24 1 21 25
M  V30 25 2 22 26
M  V30 26 1 23 27
M  V30 27 1 24 28
M  V30 28 2 25 29
M  V30 29 1 27 30
M  V30 30 2 28 31
M  V30 31 1 29 32
M  V30 32 1 32 33
M  V30 33 1 32 34
M  V30 34 1 12 13
M  V30 35 1 20 23
M  V30 36 1 25 26
M  V30 37 1 29 31
M  V30 38 1 3 35
M  V30 39 1 4 36
M  V30 40 1 5 37
M  V30 41 1 6 38
M  V30 42 1 6 39
M  V30 43 1 7 40
M  V30 44 1 7 41
M  V30 45 1 8 42
M  V30 46 1 9 43
M  V30 47 1 11 44
M  V30 48 1 12 45
M  V30 49 1 14 46
M  V30 50 1 14 47
M  V30 51 1 15 48
M  V30 52 1 16 49
M  V30 53 1 18 50
M  V30 54 1 19 51
M  V30 55 1 20 52
M  V30 56 1 22 53
M  V30 57 1 28 54
M  V30 58 1 30 55
M  V30 59 1 30 56
M  V30 60 1 30 57
M  V30 61 1 33 58
M  V30 62 1 33 59
M  V30 63 1 33 60
M  V30 64 1 34 61
M  V30 65 1 34 62
M  V30 66 1 34 63
M  V30 END BOND
M  V30 BEGIN COLLECTION
M  V30 MDLV30/STEABS ATOMS=(4 4 8 9 12)
M  V30 END COLLECTION
M  V30 END CTAB
M  END
>  <level_0>
2046

>  <index>
2046

>  <NO.>
2047

>  <Name>
schembl20815730

>  <SMILES>
COc1ccc(C[C@H](N)C(=O)NC2[C@@H](CO)O[C@@H](n3cnc4c(N(C)C)ncnc43)[C@@H]2O)cc1

>  <logBB>


>  <Class>
-1

>  <MW>
471.22

>  <nHBAcc>
10

>  <nHBDon>
4

>  <SLogP>
-0.79

>  <TopoPSA>
160.88

>  <MMFF94 Energy>
152.04

$$$$
COc1ccc2c(C3CCN(CCCC(=O)c4ccc(F)cc4)CC3)c(C)[nH]c2c1
Actelion Java MolfileCreator 2.0

  0  0  0  0  0  0              0 V3000
M  V30 BEGIN CTAB
M  V30 COUNTS 59 62 0 0 0
M  V30 BEGIN ATOM
M  V30 1 F 9.9891 4.6254 0.7963 0
M  V30 2 C 8.7242 4.2355 0.5941 0
M  V30 3 C 8.0286 4.7092 -0.5105 0
M  V30 4 C 8.1251 3.362 1.495 0
M  V30 5 C 6.7092 4.301 -0.7184 0
M  V30 6 C 6.8042 2.9507 1.2906 0
M  V30 7 C 6.0871 3.4177 0.1794 0
M  V30 8 C 4.6717 3.0128 -0.089 0
M  V30 9 O 4.0768 3.52 -1.0374 0
M  V30 10 C 4.0178 1.9959 0.832 0
M  V30 11 C 2.6189 1.5969 0.354 0
M  V30 12 C 1.9671 0.6086 1.3297 0
M  V30 13 N 0.7052 0.0354 0.8304 0
M  V30 14 C 0.2765 -1.0677 1.7073 0
M  V30 15 C -0.3573 1.0463 0.7061 0
M  V30 16 C -0.9853 -1.7506 1.1818 0
M  V30 17 C -1.6485 0.4421 0.15 0
M  V30 18 C -2.1194 -0.7366 1.0065 0
M  V30 19 C -3.3933 -1.3659 0.4902 0
M  V30 20 C -3.6022 -2.025 -0.7713 0
M  V30 21 C -4.6042 -1.4115 1.1694 0
M  V30 22 C -4.93 -2.4466 -0.8111 0
M  V30 23 C -2.7893 -2.3056 -1.8885 0
M  V30 24 N -5.5104 -2.0624 0.3725 0
M  V30 25 C -4.9883 -0.8938 2.5088 0
M  V30 26 C -5.4878 -3.1322 -1.9033 0
M  V30 27 C -3.3294 -2.9885 -2.9862 0
M  V30 28 C -4.6615 -3.3991 -2.9992 0
M  V30 29 O -5.0397 -4.0543 -4.1418 0
M  V30 30 C -6.3909 -4.4891 -4.2163 0
M  V30 31 H 8.513 5.3912 -1.2023 0
M  V30 32 H 8.6909 3.0076 2.3515 0
M  V30 33 H 6.1671 4.675 -1.5858 0
M  V30 34 H 6.3618 2.2712 2.0128 0
M  V30 35 H 4.6488 1.1009 0.87 0
M  V30 36 H 3.9477 2.4342 1.834 0
M  V30 37 H 2.0054 2.5 0.2575 0
M  V30 38 H 2.6893 1.1472 -0.6444 0
M  V30 39 H 2.6814 -0.2092 1.4923 0
M  V30 40 H 1.8142 1.0938 2.3028 0
M  V30 41 H 1.0675 -1.8257 1.7637 0
M  V30 42 H 0.1022 -0.7055 2.7293 0
M  V30 43 H -0.5586 1.5184 1.6767 0
M  V30 44 H -0.0542 1.84 0.0155 0
M  V30 45 H -1.2905 -2.5396 1.8805 0
M  V30 46 H -0.7533 -2.2492 0.2334 0
M  V30 47 H -1.4771 0.1294 -0.8868 0
M  V30 48 H -2.4262 1.2155 0.1154 0
M  V30 49 H -2.3357 -0.3315 2.0059 0
M  V30 50 H -1.7482 -1.9987 -1.9112 0
M  V30 51 H -6.4751 -2.2389 0.6149 0
M  V30 52 H -4.8427 0.1901 2.5536 0
M  V30 53 H -4.374 -1.3585 3.2866 0
M  V30 54 H -6.0382 -1.1028 2.7384 0
M  V30 55 H -6.5271 -3.4331 -1.8728 0
M  V30 56 H -2.6943 -3.1997 -3.8432 0
M  V30 57 H -6.6144 -5.2203 -3.4324 0
M  V30 58 H -6.5298 -4.9846 -5.182 0
M  V30 59 H -7.0821 -3.6407 -4.1755 0
M  V30 END ATOM
M  V30 BEGIN BOND
M  V30 1 1 1 2
M  V30 2 2 2 3
M  V30 3 1 2 4
M  V30 4 1 3 5
M  V30 5 2 4 6
M  V30 6 2 5 7
M  V30 7 1 7 8
M  V30 8 2 8 9
M  V30 9 1 8 10
M  V30 10 1 10 11
M  V30 11 1 11 12
M  V30 12 1 12 13
M  V30 13 1 13 14
M  V30 14 1 13 15
M  V30 15 1 14 16
M  V30 16 1 15 17
M  V30 17 1 16 18
M  V30 18 1 18 19
M  V30 19 1 19 20
M  V30 20 2 19 21
M  V30 21 2 20 22
M  V30 22 1 20 23
M  V30 23 1 21 24
M  V30 24 1 21 25
M  V30 25 1 22 26
M  V30 26 2 23 27
M  V30 27 2 26 28
M  V30 28 1 28 29
M  V30 29 1 29 30
M  V30 30 1 6 7
M  V30 31 1 17 18
M  V30 32 1 22 24
M  V30 33 1 27 28
M  V30 34 1 3 31
M  V30 35 1 4 32
M  V30 36 1 5 33
M  V30 37 1 6 34
M  V30 38 1 10 35
M  V30 39 1 10 36
M  V30 40 1 11 37
M  V30 41 1 11 38
M  V30 42 1 12 39
M  V30 43 1 12 40
M  V30 44 1 14 41
M  V30 45 1 14 42
M  V30 46 1 15 43
M  V30 47 1 15 44
M  V30 48 1 16 45
M  V30 49 1 16 46
M  V30 50 1 17 47
M  V30 51 1 17 48
M  V30 52 1 18 49
M  V30 53 1 23 50
M  V30 54 1 24 51
M  V30 55 1 25 52
M  V30 56 1 25 53
M  V30 57 1 25 54
M  V30 58 1 26 55
M  V30 59 1 27 56
M  V30 60 1 30 57
M  V30 61 1 30 58
M  V30 62 1 30 59
M  V30 END BOND
M  V30 END CTAB
M  END
>  <level_0>
2054

>  <index>
2054

>  <NO.>
2055

>  <Name>
mindoperone

>  <SMILES>
COc1ccc2c(C3CCN(CCCC(=O)c4ccc(F)cc4)CC3)c(C)[nH]c2c1

>  <logBB>


>  <Class>
1

>  <MW>
408.22

>  <nHBAcc>
3

>  <nHBDon>
1

>  <SLogP>
5.47

>  <TopoPSA>
45.33

>  <MMFF94 Energy>
53.536

$$$$
COc1ccc2c(c1)N(CCC1CCCCN1C)c1ccccc1S2
Actelion Java MolfileCreator 2.0

  0  0  0  0  0  0              0 V3000
M  V30 BEGIN CTAB
M  V30 COUNTS 51 54 0 0 0
M  V30 BEGIN ATOM
M  V30 1 S 2.4169 2.2556 3.4656 0
M  V30 2 C 1.6576 0.6524 3.3976 0
M  V30 3 C 2.0049 2.9419 1.88 0
M  V30 4 C 0.8018 0.2327 2.36 0
M  V30 5 C 1.9553 -0.1996 4.4767 0
M  V30 6 C 1.1174 2.332 0.9703 0
M  V30 7 C 2.6205 4.1746 1.581 0
M  V30 8 N 0.4803 1.0908 1.2636 0
M  V30 9 C 0.2952 -1.0893 2.4574 0
M  V30 10 C 1.4274 -1.4842 4.541 0
M  V30 11 C 0.9116 3.0178 -0.2491 0
M  V30 12 C 2.384 4.8224 0.3748 0
M  V30 13 C -0.6691 0.6993 0.4135 0
M  V30 14 C 0.5974 -1.9402 3.528 0
M  V30 15 C 1.5292 4.2398 -0.5442 0
M  V30 16 C -0.2247 -0.1802 -0.7689 0
M  V30 17 O 0.1508 -3.2226 3.6917 0
M  V30 18 C -1.4094 -0.9088 -1.4507 0 CFG=2
M  V30 19 C -0.6958 -3.7534 2.6802 0
M  V30 20 N -1.0203 -1.849 -2.5239 0
M  V30 21 C -2.4709 0.056 -2.0195 0
M  V30 22 C -0.4744 -1.1839 -3.7134 0
M  V30 23 C -0.1375 -2.9211 -2.0718 0
M  V30 24 C -1.9745 0.8013 -3.2547 0
M  V30 25 C -1.4742 -0.1872 -4.3008 0
M  V30 26 H 2.6098 0.1354 5.279 0
M  V30 27 H 3.2972 4.6369 2.2974 0
M  V30 28 H -0.3376 -1.4781 1.6723 0
M  V30 29 H 1.6711 -2.1301 5.3804 0
M  V30 30 H 0.2693 2.6186 -1.0261 0
M  V30 31 H 2.8677 5.7702 0.1569 0
M  V30 32 H -1.2097 1.5842 0.0576 0
M  V30 33 H -1.4336 0.1865 1.0116 0
M  V30 34 H 1.3386 4.7277 -1.4968 0
M  V30 35 H 0.4947 -0.9216 -0.4055 0
M  V30 36 H 0.328 0.4259 -1.493 0
M  V30 37 H -1.9172 -1.4979 -0.6744 0
M  V30 38 H -1.6267 -3.1816 2.6043 0
M  V30 39 H -0.9565 -4.777 2.9656 0
M  V30 40 H -0.1786 -3.7982 1.716 0
M  V30 41 H -2.806 0.7727 -1.263 0
M  V30 42 H -3.3636 -0.5228 -2.2946 0
M  V30 43 H 0.4706 -0.6756 -3.487 0
M  V30 44 H -0.2541 -1.9301 -4.4869 0
M  V30 45 H 0.8756 -2.5706 -1.8488 0
M  V30 46 H -0.0605 -3.6961 -2.8426 0
M  V30 47 H -0.5424 -3.4099 -1.1788 0
M  V30 48 H -1.1701 1.4933 -2.9812 0
M  V30 49 H -2.7851 1.4072 -3.6749 0
M  V30 50 H -1.0116 0.3557 -5.1327 0
M  V30 51 H -2.3298 -0.7351 -4.7164 0
M  V30 END ATOM
M  V30 BEGIN BOND
M  V30 1 1 1 2
M  V30 2 1 1 3
M  V30 3 2 2 4
M  V30 4 1 2 5
M  V30 5 2 3 6
M  V30 6 1 3 7
M  V30 7 1 4 8
M  V30 8 1 4 9
M  V30 9 2 5 10
M  V30 10 1 6 11
M  V30 11 2 7 12
M  V30 12 1 8 13
M  V30 13 2 9 14
M  V30 14 2 11 15
M  V30 15 1 13 16
M  V30 16 1 14 17
M  V30 17 1 16 18
M  V30 18 1 17 19
M  V30 19 1 18 20
M  V30 20 1 18 21
M  V30 21 1 20 22
M  V30 22 1 20 23
M  V30 23 1 21 24
M  V30 24 1 22 25
M  V30 25 1 6 8
M  V30 26 1 10 14
M  V30 27 1 12 15
M  V30 28 1 24 25
M  V30 29 1 5 26
M  V30 30 1 7 27
M  V30 31 1 9 28
M  V30 32 1 10 29
M  V30 33 1 11 30
M  V30 34 1 12 31
M  V30 35 1 13 32
M  V30 36 1 13 33
M  V30 37 1 15 34
M  V30 38 1 16 35
M  V30 39 1 16 36
M  V30 40 1 18 37
M  V30 41 1 19 38
M  V30 42 1 19 39
M  V30 43 1 19 40
M  V30 44 1 21 41
M  V30 45 1 21 42
M  V30 46 1 22 43
M  V30 47 1 22 44
M  V30 48 1 23 45
M  V30 49 1 23 46
M  V30 50 1 23 47
M  V30 51 1 24 48
M  V30 52 1 24 49
M  V30 53 1 25 50
M  V30 54 1 25 51
M  V30 END BOND
M  V30 BEGIN COLLECTION
M  V30 MDLV30/STERAC1 ATOMS=(1 18)
M  V30 END COLLECTION
M  V30 END CTAB
M  END
>  <level_0>
2060

>  <index>
2060

>  <NO.>
2061

>  <Name>
oxyridazine

>  <SMILES>
COc1ccc2c(c1)N(CCC1CCCCN1C)c1ccccc1S2

>  <logBB>


>  <Class>
1

>  <MW>
354.18

>  <nHBAcc>
4

>  <nHBDon>
0

>  <SLogP>
5.17

>  <TopoPSA>
15.71

>  <MMFF94 Energy>
75.031

$$$$
COc1cccc2c1C(=O)c1c(O)c3c(c(O)c1C2=O)C[C@@](O)(/C(C)=N/NC(=O)c1ccccc1)C[C@@H]3O[C@H]1C[C@H](N)[C@H](O)[C@H](C)O1
Actelion Java MolfileCreator 2.0

  0  0  0  0  0  0              0 V3000
M  V30 BEGIN CTAB
M  V30 COUNTS 82 87 0 0 0
M  V30 BEGIN ATOM
M  V30 1 O 3.3806 2.4138 3.9448 0
M  V30 2 C 2.2427 2.873 3.9071 0
M  V30 3 C 1.3734 2.4391 2.7883 0
M  V30 4 C 1.7352 3.8345 4.924 0
M  V30 5 C 1.8184 1.4738 1.8652 0
M  V30 6 C 0.1081 2.9921 2.6323 0
M  V30 7 C 2.4968 4.2106 6.053 0
M  V30 8 C 0.4626 4.3839 4.7437 0
M  V30 9 O 3.0727 0.9168 1.9562 0
M  V30 10 C 1.0035 1.0388 0.8005 0
M  V30 11 C -0.3676 4.0088 3.5859 0
M  V30 12 C -0.7046 2.5825 1.5614 0
M  V30 13 O 3.7318 3.642 6.2046 0
M  V30 14 C 1.9631 5.1329 6.9655 0
M  V30 15 C -0.0563 5.305 5.6634 0
M  V30 16 C -0.2801 1.5971 0.6519 0
M  V30 17 C 1.4977 -0.0549 -0.1259 0 CFG=1
M  V30 18 O -1.4636 4.5355 3.4102 0
M  V30 19 O -1.9473 3.1291 1.3443 0
M  V30 20 C 4.5199 4.0036 7.33 0
M  V30 21 C 0.6944 5.6783 6.7713 0
M  V30 22 C -1.2108 1.1953 -0.4765 0
M  V30 23 O 1.2942 -1.2917 0.5551 0
M  V30 24 C 0.7822 -0.0315 -1.4801 0
M  V30 25 C -0.7418 0.0236 -1.3514 0 CFG=1
M  V30 26 C 2.422 -2.1583 0.5123 0 CFG=2
M  V30 27 O -1.2038 -1.2021 -0.7602 0
M  V30 28 C -1.3983 0.1307 -2.7558 0
M  V30 29 O 2.5738 -2.7747 -0.7643 0
M  V30 30 C 2.2949 -3.2008 1.6234 0
M  V30 31 N -2.2893 -0.772 -3.0544 0
M  V30 32 C -0.9834 1.2503 -3.6844 0
M  V30 33 C 1.4891 -3.6519 -1.1069 0 CFG=2
M  V30 34 C 1.1338 -4.1559 1.3424 0 CFG=1
M  V30 35 N -2.8829 -0.7553 -4.2783 0
M  V30 36 C 1.2836 -4.7685 -0.0657 0 CFG=2
M  V30 37 C 1.7886 -4.2101 -2.494 0
M  V30 38 N 1.0747 -5.1858 2.4001 0
M  V30 39 C -3.8146 -1.7349 -4.5927 0
M  V30 40 O 2.389 -5.6857 -0.082 0
M  V30 41 O -4.1336 -2.6693 -3.8642 0
M  V30 42 C -4.4199 -1.6239 -5.9478 0
M  V30 43 C -4.7539 -2.803 -6.6254 0
M  V30 44 C -4.6835 -0.3822 -6.5422 0
M  V30 45 C -5.3192 -2.7427 -7.8998 0
M  V30 46 C -5.2511 -0.3273 -7.8175 0
M  V30 47 C -5.563 -1.5057 -8.4961 0
M  V30 48 H 3.5292 1.3018 2.7406 0
M  V30 49 H 2.5136 5.4496 7.8467 0
M  V30 50 H -1.0479 5.7327 5.5213 0
M  V30 51 H 2.563 0.114 -0.3325 0
M  V30 52 H -2.133 3.7814 2.0578 0
M  V30 53 H 4.7598 5.0718 7.3169 0
M  V30 54 H 5.4622 3.4507 7.2697 0
M  V30 55 H 4.0265 3.7186 8.265 0
M  V30 56 H 0.2919 6.3922 7.487 0
M  V30 57 H -1.3562 2.0912 -1.0927 0
M  V30 58 H -2.1869 0.9385 -0.0428 0
M  V30 59 H 1.0659 -0.9157 -2.0613 0
M  V30 60 H 1.1453 0.8399 -2.0383 0
M  V30 61 H 3.335 -1.585 0.7116 0
M  V30 62 H -1.9895 -1.4838 -1.2772 0
M  V30 63 H 2.1373 -2.7 2.5868 0
M  V30 64 H 3.2333 -3.7666 1.6875 0
M  V30 65 H -0.362 1.988 -3.1734 0
M  V30 66 H -1.8691 1.7684 -4.0627 0
M  V30 67 H -0.417 0.8323 -4.521 0
M  V30 68 H 0.5702 -3.0612 -1.1747 0
M  V30 69 H 0.1923 -3.594 1.3794 0
M  V30 70 H -2.5968 -0.0794 -4.974 0
M  V30 71 H 0.3878 -5.3465 -0.3238 0
M  V30 72 H 1.004 -4.8975 -2.8243 0
M  V30 73 H 2.751 -4.7324 -2.5159 0
M  V30 74 H 1.863 -3.3937 -3.2211 0
M  V30 75 H 1.9826 -5.6356 2.4981 0
M  V30 76 H 0.3889 -5.8976 2.158 0
M  V30 77 H 2.1695 -6.3903 0.5488 0
M  V30 78 H -4.5723 -3.7701 -6.1597 0
M  V30 79 H -4.4874 0.5476 -6.0165 0
M  V30 80 H -5.5745 -3.6607 -8.4235 0
M  V30 81 H -5.4637 0.6342 -8.2788 0
M  V30 82 H -6.0094 -1.4609 -9.4868 0
M  V30 END ATOM
M  V30 BEGIN BOND
M  V30 1 2 1 2
M  V30 2 1 2 3
M  V30 3 1 2 4
M  V30 4 2 3 5
M  V30 5 1 3 6
M  V30 6 2 4 7
M  V30 7 1 4 8
M  V30 8 1 5 9
M  V30 9 1 5 10
M  V30 10 1 6 11
M  V30 11 2 6 12
M  V30 12 1 7 13
M  V30 13 1 7 14
M  V30 14 2 8 15
M  V30 15 2 10 16
M  V30 16 1 10 17
M  V30 17 2 11 18
M  V30 18 1 12 19
M  V30 19 1 13 20
M  V30 20 2 14 21
M  V30 21 1 16 22
M  V30 22 1 17 23
M  V30 23 1 17 24
M  V30 24 1 22 25
M  V30 25 1 23 26
M  V30 26 1 25 27
M  V30 27 1 25 28
M  V30 28 1 26 29
M  V30 29 1 26 30
M  V30 30 2 28 31
M  V30 31 1 28 32
M  V30 32 1 29 33
M  V30 33 1 30 34
M  V30 34 1 31 35
M  V30 35 1 33 36
M  V30 36 1 33 37
M  V30 37 1 34 38
M  V30 38 1 35 39
M  V30 39 1 36 40
M  V30 40 2 39 41
M  V30 41 1 39 42
M  V30 42 2 42 43
M  V30 43 1 42 44
M  V30 44 1 43 45
M  V30 45 2 44 46
M  V30 46 2 45 47
M  V30 47 1 8 11
M  V30 48 1 12 16
M  V30 49 1 15 21
M  V30 50 1 24 25
M  V30 51 1 34 36
M  V30 52 1 46 47
M  V30 53 1 9 48
M  V30 54 1 14 49
M  V30 55 1 15 50
M  V30 56 1 17 51
M  V30 57 1 19 52
M  V30 58 1 20 53
M  V30 59 1 20 54
M  V30 60 1 20 55
M  V30 61 1 21 56
M  V30 62 1 22 57
M  V30 63 1 22 58
M  V30 64 1 24 59
M  V30 65 1 24 60
M  V30 66 1 26 61
M  V30 67 1 27 62
M  V30 68 1 30 63
M  V30 69 1 30 64
M  V30 70 1 32 65
M  V30 71 1 32 66
M  V30 72 1 32 67
M  V30 73 1 33 68
M  V30 74 1 34 69
M  V30 75 1 35 70
M  V30 76 1 36 71
M  V30 77 1 37 72
M  V30 78 1 37 73
M  V30 79 1 37 74
M  V30 80 1 38 75
M  V30 81 1 38 76
M  V30 82 1 40 77
M  V30 83 1 43 78
M  V30 84 1 44 79
M  V30 85 1 45 80
M  V30 86 1 46 81
M  V30 87 1 47 82
M  V30 END BOND
M  V30 BEGIN COLLECTION
M  V30 MDLV30/STEABS ATOMS=(6 17 25 26 33 34 36)
M  V30 END COLLECTION
M  V30 END CTAB
M  END
>  <level_0>
2073

>  <index>
2073

>  <NO.>
2074

>  <Name>
zorubicin

>  <SMILES>
COc1cccc2c1C(=O)c1c(O)c3c(c(O)c1C2=O)C[C@@](O)(/C(C)=N/NC(=O)c1ccccc1)C[C@@H]3O[C@H]1C[C@H](N)[C@H](O)[C@H](C)O1

>  <logBB>


>  <Class>
-1

>  <MW>
645.23

>  <nHBAcc>
12

>  <nHBDon>
6

>  <SLogP>
2.25

>  <TopoPSA>
210.23

>  <MMFF94 Energy>
198.46

$$$$
COc1cccc2c1C(=O)c1c(O)c3c(c(O)c1C2=O)C[C@@](O)(C(=O)CO)C[C@@H]3O[C@H]1C[C@H](N)[C@H](O[C@H]2CCCCO2)[C@H](C)O1
Actelion Java MolfileCreator 2.0

  0  0  0  0  0  0              0 V3000
M  V30 BEGIN CTAB
M  V30 COUNTS 82 87 0 0 0
M  V30 BEGIN ATOM
M  V30 1 O 2.2577 2.6613 3.4688 0
M  V30 2 C 3.3105 2.1619 3.0831 0
M  V30 3 C 3.2334 0.9135 2.2904 0
M  V30 4 C 4.6261 2.782 3.3694 0
M  V30 5 C 1.9978 0.2752 2.0762 0
M  V30 6 C 4.3866 0.364 1.7412 0
M  V30 7 C 4.7601 3.9194 4.182 0
M  V30 8 C 5.7749 2.2251 2.8058 0
M  V30 9 O 0.8309 0.7696 2.6105 0
M  V30 10 C 1.9002 -0.9051 1.3122 0
M  V30 11 C 5.6882 1.0209 1.9614 0
M  V30 12 C 4.3023 -0.8177 0.9856 0
M  V30 13 O 3.693 4.4767 4.8352 0
M  V30 14 C 6.0212 4.4702 4.4384 0
M  V30 15 C 7.037 2.7927 3.0434 0
M  V30 16 C 3.0701 -1.4558 0.7562 0
M  V30 17 C 0.5393 -1.5223 1.0555 0 CFG=1
M  V30 18 O 6.6975 0.5508 1.4432 0
M  V30 19 O 5.4158 -1.4094 0.4409 0
M  V30 20 C 3.1889 5.6002 4.1106 0
M  V30 21 C 7.1584 3.9141 3.8604 0
M  V30 22 C 3.0429 -2.7615 -0.0144 0
M  V30 23 O -0.0885 -0.7064 0.0629 0
M  V30 24 C 0.6156 -2.9795 0.5873 0
M  V30 25 C 1.6528 -3.1946 -0.5178 0 CFG=1
M  V30 26 C -1.4537 -0.4126 0.3512 0 CFG=2
M  V30 27 O 1.2934 -2.4661 -1.6963 0
M  V30 28 C 1.6792 -4.6814 -0.9266 0
M  V30 29 O -2.2936 -1.531 0.0765 0
M  V30 30 C -1.866 0.8346 -0.4364 0
M  V30 31 O 2.6798 -5.3956 -0.8012 0
M  V30 32 C 0.3965 -5.2772 -1.5059 0
M  V30 33 C -2.3902 -1.8511 -1.3214 0 CFG=2
M  V30 34 C -1.9491 0.5203 -1.9314 0 CFG=1
M  V30 35 O 0.6268 -6.5689 -2.0576 0
M  V30 36 C -2.9239 -0.6608 -2.1526 0 CFG=2
M  V30 37 C -3.2912 -3.0775 -1.4348 0
M  V30 38 N -2.2992 1.7209 -2.7094 0
M  V30 39 O -4.2589 -0.3817 -1.6941 0
M  V30 40 C -5.0961 0.2894 -2.6287 0 CFG=2
M  V30 41 O -5.0727 1.6974 -2.3794 0
M  V30 42 C -6.5156 -0.2407 -2.4162 0
M  V30 43 C -5.9034 2.4149 -3.2922 0
M  V30 44 C -7.5134 0.4951 -3.3012 0
M  V30 45 C -7.3606 2.0025 -3.1352 0
M  V30 46 H 1.0315 1.6158 3.0743 0
M  V30 47 H 6.1151 5.3283 5.1004 0
M  V30 48 H 7.9317 2.3555 2.602 0
M  V30 49 H -0.0288 -1.5164 1.9954 0
M  V30 50 H 6.2043 -0.859 0.652 0
M  V30 51 H 3.8906 6.4397 4.1611 0
M  V30 52 H 2.2525 5.9114 4.5833 0
M  V30 53 H 2.9759 5.3478 3.0659 0
M  V30 54 H 8.1379 4.3444 4.0569 0
M  V30 55 H 3.7203 -2.6853 -0.8745 0
M  V30 56 H 3.4507 -3.5244 0.6622 0
M  V30 57 H -0.3747 -3.2901 0.2418 0
M  V30 58 H 0.8681 -3.6205 1.4432 0
M  V30 59 H -1.5624 -0.1711 1.4151 0
M  V30 60 H 2.0933 -2.3383 -2.2379 0
M  V30 61 H -2.8421 1.1839 -0.0767 0
M  V30 62 H -1.138 1.6366 -0.2621 0
M  V30 63 H -0.3464 -5.3791 -0.7116 0
M  V30 64 H 0.0088 -4.6365 -2.301 0
M  V30 65 H -1.3962 -2.1322 -1.6873 0
M  V30 66 H -0.9558 0.2135 -2.2832 0
M  V30 67 H 1.4589 -6.8931 -1.6562 0
M  V30 68 H -2.9435 -0.9544 -3.2099 0
M  V30 69 H -2.8545 -3.9181 -0.8844 0
M  V30 70 H -3.4235 -3.3781 -2.4784 0
M  V30 71 H -4.2757 -2.8955 -0.9903 0
M  V30 72 H -1.7072 2.4958 -2.4132 0
M  V30 73 H -3.2527 1.9976 -2.4367 0
M  V30 74 H -4.7749 0.0879 -3.6588 0
M  V30 75 H -6.5517 -1.3192 -2.6086 0
M  V30 76 H -6.8014 -0.1049 -1.3646 0
M  V30 77 H -5.7939 3.4818 -3.0729 0
M  V30 78 H -5.549 2.2506 -4.3165 0
M  V30 79 H -7.3398 0.2239 -4.3497 0
M  V30 80 H -8.5359 0.1895 -3.0537 0
M  V30 81 H -7.7056 2.2801 -2.1315 0
M  V30 82 H -7.9882 2.532 -3.8596 0
M  V30 END ATOM
M  V30 BEGIN BOND
M  V30 1 2 1 2
M  V30 2 1 2 3
M  V30 3 1 2 4
M  V30 4 2 3 5
M  V30 5 1 3 6
M  V30 6 2 4 7
M  V30 7 1 4 8
M  V30 8 1 5 9
M  V30 9 1 5 10
M  V30 10 1 6 11
M  V30 11 2 6 12
M  V30 12 1 7 13
M  V30 13 1 7 14
M  V30 14 2 8 15
M  V30 15 2 10 16
M  V30 16 1 10 17
M  V30 17 2 11 18
M  V30 18 1 12 19
M  V30 19 1 13 20
M  V30 20 2 14 21
M  V30 21 1 16 22
M  V30 22 1 17 23
M  V30 23 1 17 24
M  V30 24 1 22 25
M  V30 25 1 23 26
M  V30 26 1 25 27
M  V30 27 1 25 28
M  V30 28 1 26 29
M  V30 29 1 26 30
M  V30 30 2 28 31
M  V30 31 1 28 32
M  V30 32 1 29 33
M  V30 33 1 30 34
M  V30 34 1 32 35
M  V30 35 1 33 36
M  V30 36 1 33 37
M  V30 37 1 34 38
M  V30 38 1 36 39
M  V30 39 1 39 40
M  V30 40 1 40 41
M  V30 41 1 40 42
M  V30 42 1 41 43
M  V30 43 1 42 44
M  V30 44 1 43 45
M  V30 45 1 8 11
M  V30 46 1 12 16
M  V30 47 1 15 21
M  V30 48 1 24 25
M  V30 49 1 34 36
M  V30 50 1 44 45
M  V30 51 1 9 46
M  V30 52 1 14 47
M  V30 53 1 15 48
M  V30 54 1 17 49
M  V30 55 1 19 50
M  V30 56 1 20 51
M  V30 57 1 20 52
M  V30 58 1 20 53
M  V30 59 1 21 54
M  V30 60 1 22 55
M  V30 61 1 22 56
M  V30 62 1 24 57
M  V30 63 1 24 58
M  V30 64 1 26 59
M  V30 65 1 27 60
M  V30 66 1 30 61
M  V30 67 1 30 62
M  V30 68 1 32 63
M  V30 69 1 32 64
M  V30 70 1 33 65
M  V30 71 1 34 66
M  V30 72 1 35 67
M  V30 73 1 36 68
M  V30 74 1 37 69
M  V30 75 1 37 70
M  V30 76 1 37 71
M  V30 77 1 38 72
M  V30 78 1 38 73
M  V30 79 1 40 74
M  V30 80 1 42 75
M  V30 81 1 42 76
M  V30 82 1 43 77
M  V30 83 1 43 78
M  V30 84 1 44 79
M  V30 85 1 44 80
M  V30 86 1 45 81
M  V30 87 1 45 82
M  V30 END BOND
M  V30 BEGIN COLLECTION
M  V30 MDLV30/STEABS ATOMS=(7 17 25 26 33 34 36 40)
M  V30 END COLLECTION
M  V30 END CTAB
M  END
>  <level_0>
2074

>  <index>
2074

>  <NO.>
2075

>  <Name>
pirarubicin

>  <SMILES>
COc1cccc2c1C(=O)c1c(O)c3c(c(O)c1C2=O)C[C@@](O)(C(=O)CO)C[C@@H]3O[C@H]1C[C@H](N)[C@H](O[C@H]2CCCCO2)[C@H](C)O1

>  <logBB>


>  <Class>
-1

>  <MW>
627.23

>  <nHBAcc>
13

>  <nHBDon>
5

>  <SLogP>
1.55

>  <TopoPSA>
204.3

>  <MMFF94 Energy>
134.05

$$$$
COc1cccc2c1C(=O)c1c(O)c3c(c(O)c1C2=O)C[C@@](O)(C(=O)CO)C[C@@H]3O[C@H]1C[C@H](NC(=O)[C@@H](N)CC(C)C)[C@H](O)[C@H](C)O1
Actelion Java MolfileCreator 2.0

  0  0  0  0  0  0              0 V3000
M  V30 BEGIN CTAB
M  V30 COUNTS 87 91 0 0 0
M  V30 BEGIN ATOM
M  V30 1 O 0.9613 2.9663 -3.6888 0
M  V30 2 C -0.1553 3.3079 -3.3097 0
M  V30 3 C -1.0672 2.2355 -2.8474 0
M  V30 4 C -0.6016 4.728 -3.3086 0
M  V30 5 C -0.6385 0.8942 -2.8135 0
M  V30 6 C -2.3608 2.5436 -2.4444 0
M  V30 7 C 0.2473 5.7856 -3.7041 0
M  V30 8 C -1.9088 5.0147 -2.9045 0
M  V30 9 O 0.6276 0.5329 -3.2093 0
M  V30 10 C -1.4855 -0.1416 -2.3743 0
M  V30 11 C -2.8241 3.9412 -2.4796 0
M  V30 12 C -3.2183 1.5176 -2.0116 0
M  V30 13 O 1.5223 5.4684 -4.0856 0
M  V30 14 C -0.2398 7.101 -3.6858 0
M  V30 15 C -2.3811 6.3339 -2.8926 0
M  V30 16 C -2.7929 0.1781 -1.9588 0
M  V30 17 C -0.9625 -1.5607 -2.2902 0 CFG=1
M  V30 18 O -3.9781 4.2026 -2.1496 0
M  V30 19 O -4.5118 1.7695 -1.6245 0
M  V30 20 C 2.3898 6.5109 -4.5092 0
M  V30 21 C -1.5467 7.3737 -3.2833 0
M  V30 22 C -3.7767 -0.891 -1.5144 0
M  V30 23 O -0.2695 -1.6505 -1.0352 0
M  V30 24 C -2.0874 -2.5965 -2.2984 0
M  V30 25 C -3.1582 -2.2732 -1.2514 0 CFG=1
M  V30 26 C 1.0733 -2.1096 -1.1789 0 CFG=2
M  V30 27 O -2.6079 -2.2976 0.0707 0
M  V30 28 C -4.2416 -3.3622 -1.3396 0
M  V30 29 O 1.1201 -3.5262 -1.3638 0
M  V30 30 C 1.8883 -1.6808 0.0387 0
M  V30 31 O -5.1497 -3.335 -2.1776 0
M  V30 32 C -4.1321 -4.538 -0.3735 0
M  V30 33 C 0.6248 -4.2671 -0.236 0 CFG=2
M  V30 34 C 1.4742 -2.4646 1.2856 0 CFG=1
M  V30 35 O -4.9825 -5.6111 -0.7607 0
M  V30 36 C 1.4868 -3.977 1.0009 0 CFG=2
M  V30 37 C 0.644 -5.7417 -0.6208 0
M  V30 38 N 2.3512 -2.148 2.4044 0
M  V30 39 O 2.8414 -4.4111 0.7829 0
M  V30 40 C 2.2087 -1.0265 3.1921 0
M  V30 41 O 1.31 -0.2078 3.0307 0
M  V30 42 C 3.2802 -0.9433 4.3096 0 CFG=1
M  V30 43 N 4.6062 -1.2363 3.7044 0
M  V30 44 C 3.3169 0.426 5.0066 0
M  V30 45 C 2.1235 0.7158 5.9437 0
M  V30 46 C 2.0798 -0.2345 7.1419 0
M  V30 47 C 2.2009 2.1627 6.4412 0
M  V30 48 H 1.1059 1.3464 -3.4985 0
M  V30 49 H 0.3782 7.9443 -3.98 0
M  V30 50 H -3.4 6.556 -2.578 0
M  V30 51 H -0.3078 -1.7763 -3.1441 0
M  V30 52 H -4.6856 2.7352 -1.7027 0
M  V30 53 H 1.9959 7.0161 -5.3971 0
M  V30 54 H 3.3478 6.0581 -4.782 0
M  V30 55 H 2.5772 7.2217 -3.6978 0
M  V30 56 H -1.9123 8.3985 -3.2734 0
M  V30 57 H -4.2749 -0.5535 -0.5961 0
M  V30 58 H -4.5376 -0.9547 -2.3026 0
M  V30 59 H -1.6635 -3.5874 -2.0968 0
M  V30 60 H -2.5433 -2.6382 -3.2967 0
M  V30 61 H 1.5368 -1.6478 -2.0575 0
M  V30 62 H -1.7876 -1.7592 0.0546 0
M  V30 63 H 2.9533 -1.8553 -0.1611 0
M  V30 64 H 1.7643 -0.6055 0.2151 0
M  V30 65 H -3.106 -4.9139 -0.3623 0
M  V30 66 H -4.4233 -4.2086 0.6272 0
M  V30 67 H -0.4143 -3.9811 -0.04 0
M  V30 68 H 0.4564 -2.1656 1.5685 0
M  V30 69 H -5.726 -5.2027 -1.2486 0
M  V30 70 H 1.1123 -4.5273 1.8713 0
M  V30 71 H 1.6452 -6.0668 -0.9228 0
M  V30 72 H -0.0099 -5.9138 -1.4829 0
M  V30 73 H 0.3011 -6.3717 0.2053 0
M  V30 74 H 3.2038 -2.6924 2.5309 0
M  V30 75 H 3.0463 -4.2396 -0.1556 0
M  V30 76 H 3.0695 -1.7443 5.0245 0
M  V30 77 H 4.8246 -0.4936 3.0379 0
M  V30 78 H 5.3192 -1.1717 4.4308 0
M  V30 79 H 4.24 0.5098 5.5968 0
M  V30 80 H 3.368 1.2138 4.2426 0
M  V30 81 H 1.1837 0.609 5.3917 0
M  V30 82 H 1.887 -1.2645 6.8288 0
M  V30 83 H 3.0229 -0.2164 7.6984 0
M  V30 84 H 1.2766 0.0475 7.8315 0
M  V30 85 H 2.1893 2.8643 5.6004 0
M  V30 86 H 3.116 2.3373 7.0172 0
M  V30 87 H 1.3459 2.4001 7.0833 0
M  V30 END ATOM
M  V30 BEGIN BOND
M  V30 1 2 1 2
M  V30 2 1 2 3
M  V30 3 1 2 4
M  V30 4 2 3 5
M  V30 5 1 3 6
M  V30 6 2 4 7
M  V30 7 1 4 8
M  V30 8 1 5 9
M  V30 9 1 5 10
M  V30 10 1 6 11
M  V30 11 2 6 12
M  V30 12 1 7 13
M  V30 13 1 7 14
M  V30 14 2 8 15
M  V30 15 2 10 16
M  V30 16 1 10 17
M  V30 17 2 11 18
M  V30 18 1 12 19
M  V30 19 1 13 20
M  V30 20 2 14 21
M  V30 21 1 16 22
M  V30 22 1 17 23
M  V30 23 1 17 24
M  V30 24 1 22 25
M  V30 25 1 23 26
M  V30 26 1 25 27
M  V30 27 1 25 28
M  V30 28 1 26 29
M  V30 29 1 26 30
M  V30 30 2 28 31
M  V30 31 1 28 32
M  V30 32 1 29 33
M  V30 33 1 30 34
M  V30 34 1 32 35
M  V30 35 1 33 36
M  V30 36 1 33 37
M  V30 37 1 34 38
M  V30 38 1 36 39
M  V30 39 1 38 40
M  V30 40 2 40 41
M  V30 41 1 40 42
M  V30 42 1 42 43
M  V30 43 1 42 44
M  V30 44 1 44 45
M  V30 45 1 45 46
M  V30 46 1 45 47
M  V30 47 1 8 11
M  V30 48 1 12 16
M  V30 49 1 15 21
M  V30 50 1 24 25
M  V30 51 1 34 36
M  V30 52 1 9 48
M  V30 53 1 14 49
M  V30 54 1 15 50
M  V30 55 1 17 51
M  V30 56 1 19 52
M  V30 57 1 20 53
M  V30 58 1 20 54
M  V30 59 1 20 55
M  V30 60 1 21 56
M  V30 61 1 22 57
M  V30 62 1 22 58
M  V30 63 1 24 59
M  V30 64 1 24 60
M  V30 65 1 26 61
M  V30 66 1 27 62
M  V30 67 1 30 63
M  V30 68 1 30 64
M  V30 69 1 32 65
M  V30 70 1 32 66
M  V30 71 1 33 67
M  V30 72 1 34 68
M  V30 73 1 35 69
M  V30 74 1 36 70
M  V30 75 1 37 71
M  V30 76 1 37 72
M  V30 77 1 37 73
M  V30 78 1 38 74
M  V30 79 1 39 75
M  V30 80 1 42 76
M  V30 81 1 43 77
M  V30 82 1 43 78
M  V30 83 1 44 79
M  V30 84 1 44 80
M  V30 85 1 45 81
M  V30 86 1 46 82
M  V30 87 1 46 83
M  V30 88 1 46 84
M  V30 89 1 47 85
M  V30 90 1 47 86
M  V30 91 1 47 87
M  V30 END BOND
M  V30 BEGIN COLLECTION
M  V30 MDLV30/STEABS ATOMS=(7 17 25 26 33 34 36 42)
M  V30 END COLLECTION
M  V30 END CTAB
M  END
>  <level_0>
2075

>  <index>
2075

>  <NO.>
2076

>  <Name>
leurubicin

>  <SMILES>
COc1cccc2c1C(=O)c1c(O)c3c(c(O)c1C2=O)C[C@@](O)(C(=O)CO)C[C@@H]3O[C@H]1C[C@H](NC(=O)[C@@H](N)CC(C)C)[C@H](O)[C@H](C)O1

>  <logBB>


>  <Class>
-1

>  <MW>
656.26

>  <nHBAcc>
13

>  <nHBDon>
7

>  <SLogP>
0.53

>  <TopoPSA>
235.17

>  <MMFF94 Energy>
152.29

$$$$
COc1cccc2c1C(=O)c1c(O)c3c(c(O)c1C2=O)C[C@@](O)(C(C)=O)C[C@@H]3O[C@H]1C[C@H](N)[C@H](O)[C@H](C)O1
Actelion Java MolfileCreator 2.0

  0  0  0  0  0  0              0 V3000
M  V30 BEGIN CTAB
M  V30 COUNTS 67 71 0 0 0
M  V30 BEGIN ATOM
M  V30 1 O 0.2417 3.55 1.6931 0
M  V30 2 C 0.5565 3.6303 0.5092 0
M  V30 3 C 0.8559 2.3631 -0.1981 0
M  V30 4 C 0.6467 4.9321 -0.2072 0
M  V30 5 C 0.7337 1.125 0.4623 0
M  V30 6 C 1.2723 2.385 -1.5236 0
M  V30 7 C 0.3204 6.159 0.413 0
M  V30 8 C 1.0752 4.9313 -1.5377 0
M  V30 9 O 0.3569 1.0501 1.7833 0
M  V30 10 C 1.0008 -0.0936 -0.194 0
M  V30 11 C 1.4178 3.6729 -2.223 0
M  V30 12 C 1.5608 1.1783 -2.1833 0
M  V30 13 O -0.1062 6.1206 1.7124 0
M  V30 14 C 0.4367 7.3507 -0.3177 0
M  V30 15 C 1.1878 6.1303 -2.2541 0
M  V30 16 C 1.4098 -0.0638 -1.5412 0
M  V30 17 C 0.8018 -1.4045 0.5442 0 CFG=1
M  V30 18 O 1.8236 3.6872 -3.3823 0
M  V30 19 O 2.0159 1.1519 -3.4799 0
M  V30 20 C -0.407 7.343 2.3715 0
M  V30 21 C 0.8691 7.3369 -1.6433 0
M  V30 22 C 1.7501 -1.3304 -2.3045 0
M  V30 23 O -0.6059 -1.6453 0.5974 0
M  V30 24 C 1.5263 -2.5793 -0.1198 0
M  V30 25 C 1.3062 -2.6334 -1.6322 0 CFG=1
M  V30 26 C -1.072 -1.9859 1.8987 0 CFG=2
M  V30 27 O -0.0864 -2.8413 -1.9261 0
M  V30 28 C 2.0425 -3.8655 -2.2003 0
M  V30 29 O -0.777 -3.3396 2.2299 0
M  V30 30 C -2.5717 -1.7047 1.9808 0
M  V30 31 O 1.411 -4.8949 -2.4679 0
M  V30 32 C 3.5351 -3.8122 -2.4002 0
M  V30 33 C -1.4507 -4.2957 1.3973 0 CFG=2
M  V30 34 C -3.3572 -2.6657 1.0867 0 CFG=1
M  V30 35 C -2.9805 -4.1231 1.4111 0 CFG=2
M  V30 36 C -1.0268 -5.6802 1.8749 0
M  V30 37 N -4.8133 -2.451 1.2604 0
M  V30 38 O -3.5351 -4.4776 2.687 0
M  V30 39 H 0.1971 1.9652 2.1143 0
M  V30 40 H 0.1943 8.3155 0.1186 0
M  V30 41 H 1.5222 6.1284 -3.2906 0
M  V30 42 H 1.2273 -1.303 1.5518 0
M  V30 43 H 2.0528 2.075 -3.8201 0
M  V30 44 H 0.4742 7.9904 2.4251 0
M  V30 45 H -0.7074 7.105 3.3966 0
M  V30 46 H -1.2468 7.8541 1.8895 0
M  V30 47 H 0.9547 8.2684 -2.1991 0
M  V30 48 H 2.8377 -1.3155 -2.4384 0
M  V30 49 H 1.2914 -1.2792 -3.3007 0
M  V30 50 H 1.1948 -3.5193 0.3351 0
M  V30 51 H 2.6005 -2.4896 0.0881 0
M  V30 52 H -0.5855 -1.3511 2.6484 0
M  V30 53 H -0.2219 -3.8103 -1.9604 0
M  V30 54 H -2.7753 -0.6698 1.6794 0
M  V30 55 H -2.8942 -1.8209 3.0237 0
M  V30 56 H 3.9213 -4.8301 -2.5081 0
M  V30 57 H 3.7667 -3.2509 -3.3082 0
M  V30 58 H 4.0228 -3.3567 -1.536 0
M  V30 59 H -1.0928 -4.1695 0.3692 0
M  V30 60 H -3.1105 -2.47 0.0358 0
M  V30 61 H -3.4283 -4.8014 0.6742 0
M  V30 62 H 0.0596 -5.7926 1.7895 0
M  V30 63 H -1.5043 -6.4683 1.2849 0
M  V30 64 H -1.2714 -5.8303 2.9321 0
M  V30 65 H -5.0056 -2.2804 2.2493 0
M  V30 66 H -5.06 -1.5736 0.798 0
M  V30 67 H -4.4925 -4.3207 2.5817 0
M  V30 END ATOM
M  V30 BEGIN BOND
M  V30 1 2 1 2
M  V30 2 1 2 3
M  V30 3 1 2 4
M  V30 4 2 3 5
M  V30 5 1 3 6
M  V30 6 2 4 7
M  V30 7 1 4 8
M  V30 8 1 5 9
M  V30 9 1 5 10
M  V30 10 1 6 11
M  V30 11 2 6 12
M  V30 12 1 7 13
M  V30 13 1 7 14
M  V30 14 2 8 15
M  V30 15 2 10 16
M  V30 16 1 10 17
M  V30 17 2 11 18
M  V30 18 1 12 19
M  V30 19 1 13 20
M  V30 20 2 14 21
M  V30 21 1 16 22
M  V30 22 1 17 23
M  V30 23 1 17 24
M  V30 24 1 22 25
M  V30 25 1 23 26
M  V30 26 1 25 27
M  V30 27 1 25 28
M  V30 28 1 26 29
M  V30 29 1 26 30
M  V30 30 2 28 31
M  V30 31 1 28 32
M  V30 32 1 29 33
M  V30 33 1 30 34
M  V30 34 1 33 35
M  V30 35 1 33 36
M  V30 36 1 34 37
M  V30 37 1 35 38
M  V30 38 1 8 11
M  V30 39 1 12 16
M  V30 40 1 15 21
M  V30 41 1 24 25
M  V30 42 1 34 35
M  V30 43 1 9 39
M  V30 44 1 14 40
M  V30 45 1 15 41
M  V30 46 1 17 42
M  V30 47 1 19 43
M  V30 48 1 20 44
M  V30 49 1 20 45
M  V30 50 1 20 46
M  V30 51 1 21 47
M  V30 52 1 22 48
M  V30 53 1 22 49
M  V30 54 1 24 50
M  V30 55 1 24 51
M  V30 56 1 26 52
M  V30 57 1 27 53
M  V30 58 1 30 54
M  V30 59 1 30 55
M  V30 60 1 32 56
M  V30 61 1 32 57
M  V30 62 1 32 58
M  V30 63 1 33 59
M  V30 64 1 34 60
M  V30 65 1 35 61
M  V30 66 1 36 62
M  V30 67 1 36 63
M  V30 68 1 36 64
M  V30 69 1 37 65
M  V30 70 1 37 66
M  V30 71 1 38 67
M  V30 END BOND
M  V30 BEGIN COLLECTION
M  V30 MDLV30/STEABS ATOMS=(6 17 25 26 33 34 35)
M  V30 END COLLECTION
M  V30 END CTAB
M  END
>  <level_0>
2076

>  <index>
2076

>  <NO.>
2077

>  <Name>
daunorubicin

>  <SMILES>
COc1cccc2c1C(=O)c1c(O)c3c(c(O)c1C2=O)C[C@@](O)(C(C)=O)C[C@@H]3O[C@H]1C[C@H](N)[C@H](O)[C@H](C)O1

>  <logBB>


>  <Class>
-1

>  <MW>
527.18

>  <nHBAcc>
11

>  <nHBDon>
5

>  <SLogP>
1.03

>  <TopoPSA>
185.84

>  <MMFF94 Energy>
125.06

$$$$
COc1cccc2c1C(=O)c1c(O)c3c(c(O)c1C2=O)C[C@](O)(C(=O)CO)C[C@H]3OC1CC(N)CC(C)O1
Actelion Java MolfileCreator 2.0

  0  0  0  0  0  0              0 V3000
M  V30 BEGIN CTAB
M  V30 COUNTS 67 71 0 0 0
M  V30 BEGIN ATOM
M  V30 1 O -2.4188 0.1611 2.4188 0
M  V30 2 C -1.3519 0.173 3.0256 0
M  V30 3 C -0.1107 0.1662 2.215 0
M  V30 4 C -1.2803 0.1951 4.5126 0
M  V30 5 C -0.1701 0.1224 0.8079 0
M  V30 6 C 1.1302 0.2071 2.8388 0
M  V30 7 C -2.4369 0.182 5.3242 0
M  V30 8 C -0.0212 0.2328 5.1183 0
M  V30 9 O -1.3736 0.1325 0.1432 0
M  V30 10 C 0.9976 0.0916 0.017 0
M  V30 11 C 1.209 0.2466 4.3087 0
M  V30 12 C 2.3009 0.2256 2.062 0
M  V30 13 O -3.6527 0.1388 4.6984 0
M  V30 14 C -2.2976 0.2073 6.72 0
M  V30 15 C 0.1016 0.259 6.5139 0
M  V30 16 C 2.2477 0.187 0.6594 0
M  V30 17 C 0.8883 -0.0058 -1.5 0 CFG=2
M  V30 18 O 2.3102 0.2903 4.8515 0
M  V30 19 O 3.5483 0.2923 2.6316 0
M  V30 20 C -4.8326 0.1703 5.4892 0
M  V30 21 C -1.0357 0.2463 7.3117 0
M  V30 22 C 3.5245 0.2167 -0.1479 0
M  V30 23 O 0.232 -1.2433 -1.8052 0
M  V30 24 C 2.2313 -0.0225 -2.2443 0
M  V30 25 C 3.3173 0.795 -1.5508 0 CFG=2
M  V30 26 C -0.7555 -1.103 -2.8281 0
M  V30 27 O 4.5426 0.6435 -2.2828 0
M  V30 28 C 2.9944 2.3025 -1.5322 0
M  V30 29 O -0.1273 -0.8239 -4.0804 0
M  V30 30 C -1.5051 -2.4315 -2.9109 0
M  V30 31 O 2.0737 2.7911 -2.1971 0
M  V30 32 C 3.8844 3.2134 -0.6915 0
M  V30 33 C -1.0873 -0.6536 -5.1271 0
M  V30 34 C -2.5165 -2.4455 -4.0563 0
M  V30 35 O 3.6303 4.5863 -0.9696 0
M  V30 36 C -1.8515 -1.9614 -5.3479 0
M  V30 37 C -0.3288 -0.247 -6.3836 0
M  V30 38 N -3.6787 -1.6093 -3.7389 0
M  V30 39 H -2.1009 0.1312 0.8079 0
M  V30 40 H -3.1592 0.1956 7.3812 0
M  V30 41 H 1.0833 0.289 6.9844 0
M  V30 42 H 0.3004 0.8581 -1.8381 0
M  V30 43 H 3.4502 0.2921 3.6115 0
M  V30 44 H -4.8994 -0.7132 6.132 0
M  V30 45 H -5.6906 0.1527 4.8104 0
M  V30 46 H -4.8913 1.0933 6.0752 0
M  V30 47 H -0.9415 0.2657 8.3954 0
M  V30 48 H 4.3065 0.7857 0.3678 0
M  V30 49 H 3.9101 -0.8094 -0.2197 0
M  V30 50 H 2.0839 0.327 -3.2746 0
M  V30 51 H 2.5838 -1.0575 -2.3658 0
M  V30 52 H -1.4448 -0.2913 -2.5629 0
M  V30 53 H 4.3452 0.8014 -3.2252 0
M  V30 54 H -1.9828 -2.6605 -1.95 0
M  V30 55 H -0.778 -3.2376 -3.0803 0
M  V30 56 H 3.6812 3.0432 0.3681 0
M  V30 57 H 4.9351 3.0119 -0.9123 0
M  V30 58 H -1.7713 0.1607 -4.858 0
M  V30 59 H -2.8765 -3.471 -4.2008 0
M  V30 60 H 2.7609 4.6181 -1.4187 0
M  V30 61 H -2.5904 -1.8468 -6.1503 0
M  V30 62 H -1.147 -2.7388 -5.6729 0
M  V30 63 H -1.0091 -0.0922 -7.2265 0
M  V30 64 H 0.4095 -1.0071 -6.6613 0
M  V30 65 H 0.2272 0.6803 -6.2085 0
M  V30 66 H -4.1159 -1.9423 -2.8783 0
M  V30 67 H -4.3848 -1.7114 -4.4682 0
M  V30 END ATOM
M  V30 BEGIN BOND
M  V30 1 2 1 2
M  V30 2 1 2 3
M  V30 3 1 2 4
M  V30 4 2 3 5
M  V30 5 1 3 6
M  V30 6 2 4 7
M  V30 7 1 4 8
M  V30 8 1 5 9
M  V30 9 1 5 10
M  V30 10 1 6 11
M  V30 11 2 6 12
M  V30 12 1 7 13
M  V30 13 1 7 14
M  V30 14 2 8 15
M  V30 15 2 10 16
M  V30 16 1 10 17
M  V30 17 2 11 18
M  V30 18 1 12 19
M  V30 19 1 13 20
M  V30 20 2 14 21
M  V30 21 1 16 22
M  V30 22 1 17 23
M  V30 23 1 17 24
M  V30 24 1 22 25
M  V30 25 1 23 26
M  V30 26 1 25 27
M  V30 27 1 25 28
M  V30 28 1 26 29
M  V30 29 1 26 30
M  V30 30 2 28 31
M  V30 31 1 28 32
M  V30 32 1 29 33
M  V30 33 1 30 34
M  V30 34 1 32 35
M  V30 35 1 33 36
M  V30 36 1 33 37
M  V30 37 1 34 38
M  V30 38 1 8 11
M  V30 39 1 12 16
M  V30 40 1 15 21
M  V30 41 1 24 25
M  V30 42 1 34 36
M  V30 43 1 9 39
M  V30 44 1 14 40
M  V30 45 1 15 41
M  V30 46 1 17 42
M  V30 47 1 19 43
M  V30 48 1 20 44
M  V30 49 1 20 45
M  V30 50 1 20 46
M  V30 51 1 21 47
M  V30 52 1 22 48
M  V30 53 1 22 49
M  V30 54 1 24 50
M  V30 55 1 24 51
M  V30 56 1 26 52
M  V30 57 1 27 53
M  V30 58 1 30 54
M  V30 59 1 30 55
M  V30 60 1 32 56
M  V30 61 1 32 57
M  V30 62 1 33 58
M  V30 63 1 34 59
M  V30 64 1 35 60
M  V30 65 1 36 61
M  V30 66 1 36 62
M  V30 67 1 37 63
M  V30 68 1 37 64
M  V30 69 1 37 65
M  V30 70 1 38 66
M  V30 71 1 38 67
M  V30 END BOND
M  V30 BEGIN COLLECTION
M  V30 MDLV30/STEABS ATOMS=(2 17 25)
M  V30 END COLLECTION
M  V30 END CTAB
M  END
>  <level_0>
2077

>  <index>
2077

>  <NO.>
2078

>  <Name>
4'-deoxyadriamycin

>  <SMILES>
COc1cccc2c1C(=O)c1c(O)c3c(c(O)c1C2=O)C[C@](O)(C(=O)CO)C[C@H]3OC1CC(N)CC(C)O1

>  <logBB>


>  <Class>
-1

>  <MW>
527.18

>  <nHBAcc>
11

>  <nHBDon>
5

>  <SLogP>
1.03

>  <TopoPSA>
185.84

>  <MMFF94 Energy>
102.85

$$$$
CSc1ccc2c(c1)N(CC(C)CN(C)C)c1ccccc1S2
Actelion Java MolfileCreator 2.0

  0  0  0  0  0  0              0 V3000
M  V30 BEGIN CTAB
M  V30 COUNTS 47 49 0 0 0
M  V30 BEGIN ATOM
M  V30 1 S -2.9227 2.9227 1.0547 0
M  V30 2 C -1.7636 2.6029 -0.2462 0
M  V30 3 C -3.0886 1.3336 1.825 0
M  V30 4 C -1.2046 1.3383 -0.5138 0
M  V30 5 C -1.4337 3.7277 -1.0301 0
M  V30 6 C -2.4156 0.1708 1.3944 0
M  V30 7 C -3.9651 1.3095 2.9317 0
M  V30 8 N -1.5324 0.1841 0.2714 0
M  V30 9 C -0.3017 1.2869 -1.606 0
M  V30 10 C -0.5387 3.6335 -2.0896 0
M  V30 11 C -2.6754 -0.9942 2.1544 0
M  V30 12 C -4.1953 0.1408 3.6435 0
M  V30 13 C -0.9326 -1.1053 -0.1624 0
M  V30 14 C 0.0446 2.4096 -2.3756 0
M  V30 15 C -3.5453 -1.0143 3.2541 0
M  V30 16 C 0.5383 -1.2839 0.2985 0 CFG=2
M  V30 17 S 1.1981 2.2121 -3.7239 0
M  V30 18 C 1.1636 -2.4472 -0.5114 0
M  V30 19 C 0.6567 -1.5335 1.805 0
M  V30 20 C 2.4331 3.459 -3.268 0
M  V30 21 N 2.5761 -2.7323 -0.2034 0
M  V30 22 C 3.4617 -1.6436 -0.6242 0
M  V30 23 C 2.9907 -3.9808 -0.8496 0
M  V30 24 H -1.8849 4.6954 -0.8163 0
M  V30 25 H -4.4764 2.2179 3.2458 0
M  V30 26 H 0.1796 0.3585 -1.8925 0
M  V30 27 H -0.3211 4.5165 -2.6828 0
M  V30 28 H -2.2001 -1.9433 1.9394 0
M  V30 29 H -4.8707 0.1376 4.4939 0
M  V30 30 H -1.5243 -1.9772 0.1317 0
M  V30 31 H -1.0016 -1.1792 -1.256 0
M  V30 32 H -3.7033 -1.94 3.8019 0
M  V30 33 H 1.0928 -0.365 0.084 0
M  V30 34 H 1.052 -2.2472 -1.5858 0
M  V30 35 H 0.5704 -3.3476 -0.2996 0
M  V30 36 H 0.1403 -2.4528 2.0989 0
M  V30 37 H 1.7042 -1.6289 2.1091 0
M  V30 38 H 0.2399 -0.7 2.3779 0
M  V30 39 H 2.0195 4.4673 -3.35 0
M  V30 40 H 3.2847 3.3814 -3.9493 0
M  V30 41 H 2.7891 3.2917 -2.2477 0
M  V30 42 H 3.2588 -0.7261 -0.0635 0
M  V30 43 H 3.3694 -1.4262 -1.6944 0
M  V30 44 H 4.5075 -1.8969 -0.4156 0
M  V30 45 H 2.9136 -3.9262 -1.9415 0
M  V30 46 H 2.3763 -4.8182 -0.5007 0
M  V30 47 H 4.0262 -4.2255 -0.5875 0
M  V30 END ATOM
M  V30 BEGIN BOND
M  V30 1 1 1 2
M  V30 2 1 1 3
M  V30 3 2 2 4
M  V30 4 1 2 5
M  V30 5 2 3 6
M  V30 6 1 3 7
M  V30 7 1 4 8
M  V30 8 1 4 9
M  V30 9 2 5 10
M  V30 10 1 6 11
M  V30 11 2 7 12
M  V30 12 1 8 13
M  V30 13 2 9 14
M  V30 14 2 11 15
M  V30 15 1 13 16
M  V30 16 1 14 17
M  V30 17 1 16 18
M  V30 18 1 16 19
M  V30 19 1 17 20
M  V30 20 1 18 21
M  V30 21 1 21 22
M  V30 22 1 21 23
M  V30 23 1 6 8
M  V30 24 1 10 14
M  V30 25 1 12 15
M  V30 26 1 5 24
M  V30 27 1 7 25
M  V30 28 1 9 26
M  V30 29 1 10 27
M  V30 30 1 11 28
M  V30 31 1 12 29
M  V30 32 1 13 30
M  V30 33 1 13 31
M  V30 34 1 15 32
M  V30 35 1 16 33
M  V30 36 1 18 34
M  V30 37 1 18 35
M  V30 38 1 19 36
M  V30 39 1 19 37
M  V30 40 1 19 38
M  V30 41 1 20 39
M  V30 42 1 20 40
M  V30 43 1 20 41
M  V30 44 1 22 42
M  V30 45 1 22 43
M  V30 46 1 22 44
M  V30 47 1 23 45
M  V30 48 1 23 46
M  V30 49 1 23 47
M  V30 END BOND
M  V30 BEGIN COLLECTION
M  V30 MDLV30/STERAC1 ATOMS=(1 16)
M  V30 END COLLECTION
M  V30 END CTAB
M  END
>  <level_0>
2095

>  <index>
2095

>  <NO.>
2096

>  <Name>
methiomeprazine(levometiomeprazine)

>  <SMILES>
CSc1ccc2c(c1)N(CC(C)CN(C)C)c1ccccc1S2

>  <logBB>


>  <Class>
1

>  <MW>
344.14

>  <nHBAcc>
4

>  <nHBDon>
0

>  <SLogP>
5.21

>  <TopoPSA>
6.48

>  <MMFF94 Energy>
75.268

$$$$
C[C@@H](CN1CC(=O)NC(=O)C1)N1CC(=O)NC(=O)C1
Actelion Java MolfileCreator 2.0

  0  0  0  0  0  0              0 V3000
M  V30 BEGIN CTAB
M  V30 COUNTS 35 36 0 0 0
M  V30 BEGIN ATOM
M  V30 1 O 4.3044 -1.5925 -0.8756 0
M  V30 2 C 3.4776 -0.817 -0.3987 0
M  V30 3 N 3.5395 0.5276 -0.6634 0
M  V30 4 C 2.4017 -1.2695 0.5869 0
M  V30 5 C 2.7411 1.4944 -0.1057 0
M  V30 6 N 1.2456 -0.3581 0.5492 0
M  V30 7 O 2.9498 2.6861 -0.3275 0
M  V30 8 C 1.6646 1.0168 0.8692 0
M  V30 9 C 0.0944 -0.8492 1.3374 0 CFG=2
M  V30 10 C -1.2323 -0.0616 1.0543 0
M  V30 11 C 0.3299 -0.9085 2.8545 0
M  V30 12 N -1.5031 0.2557 -0.363 0
M  V30 13 C -2.7021 1.1102 -0.4733 0
M  V30 14 C -1.6762 -0.961 -1.1798 0
M  V30 15 C -2.9738 1.4902 -1.9262 0
M  V30 16 C -1.9524 -0.6086 -2.6407 0
M  V30 17 O -3.6033 2.4995 -2.238 0
M  V30 18 N -2.5598 0.5972 -2.8804 0
M  V30 19 O -1.7234 -1.3899 -3.5625 0
M  V30 20 H 4.2568 0.8374 -1.3008 0
M  V30 21 H 2.8597 -1.3178 1.5808 0
M  V30 22 H 2.0945 -2.2773 0.2856 0
M  V30 23 H 0.826 1.7134 0.7715 0
M  V30 24 H 2.075 1.0956 1.8821 0
M  V30 25 H -0.0973 -1.8808 1.012 0
M  V30 26 H -2.0727 -0.6283 1.4785 0
M  V30 27 H -1.1853 0.8831 1.6123 0
M  V30 28 H 0.4946 0.0857 3.2818 0
M  V30 29 H 1.1882 -1.538 3.1074 0
M  V30 30 H -0.543 -1.3406 3.3568 0
M  V30 31 H -3.5946 0.6108 -0.0777 0
M  V30 32 H -2.5434 2.0439 0.0786 0
M  V30 33 H -2.5064 -1.5775 -0.8152 0
M  V30 34 H -0.7608 -1.5611 -1.1758 0
M  V30 35 H -2.7505 0.8316 -3.8425 0
M  V30 END ATOM
M  V30 BEGIN BOND
M  V30 1 2 1 2
M  V30 2 1 2 3
M  V30 3 1 2 4
M  V30 4 1 3 5
M  V30 5 1 4 6
M  V30 6 2 5 7
M  V30 7 1 5 8
M  V30 8 1 6 9
M  V30 9 1 9 10
M  V30 10 1 9 11
M  V30 11 1 10 12
M  V30 12 1 12 13
M  V30 13 1 12 14
M  V30 14 1 13 15
M  V30 15 1 14 16
M  V30 16 2 15 17
M  V30 17 1 15 18
M  V30 18 2 16 19
M  V30 19 1 6 8
M  V30 20 1 16 18
M  V30 21 1 3 20
M  V30 22 1 4 21
M  V30 23 1 4 22
M  V30 24 1 8 23
M  V30 25 1 8 24
M  V30 26 1 9 25
M  V30 27 1 10 26
M  V30 28 1 10 27
M  V30 29 1 11 28
M  V30 30 1 11 29
M  V30 31 1 11 30
M  V30 32 1 13 31
M  V30 33 1 13 32
M  V30 34 1 14 33
M  V30 35 1 14 34
M  V30 36 1 18 35
M  V30 END BOND
M  V30 BEGIN COLLECTION
M  V30 MDLV30/STEABS ATOMS=(1 9)
M  V30 END COLLECTION
M  V30 END CTAB
M  END
>  <level_0>
2096

>  <index>
2096

>  <NO.>
2097

>  <Name>
dexrazoxane

>  <SMILES>
C[C@@H](CN1CC(=O)NC(=O)C1)N1CC(=O)NC(=O)C1

>  <logBB>


>  <Class>
-1

>  <MW>
268.12

>  <nHBAcc>
6

>  <nHBDon>
2

>  <SLogP>
-2.71

>  <TopoPSA>
98.82

>  <MMFF94 Energy>
115.26

$$$$
C[C@@H](O)[C@H]1C(=O)N2C(C(=O)O)=C(COC(N)=O)S[C@H]12
Actelion Java MolfileCreator 2.0

  0  0  0  0  0  0              0 V3000
M  V30 BEGIN CTAB
M  V30 COUNTS 31 32 0 0 0
M  V30 BEGIN ATOM
M  V30 1 S -0.8118 -1.0554 -0.5682 0
M  V30 2 C -0.2274 0.4715 -1.2466 0
M  V30 3 C 0.1689 -0.8076 0.962 0 CFG=1
M  V30 4 C 0.4469 1.195 -0.3324 0
M  V30 5 C -0.5842 0.8266 -2.6615 0
M  V30 6 N 0.608 0.5862 0.8902 0
M  V30 7 C -0.622 -0.4227 2.234 0 CFG=2
M  V30 8 C 0.932 2.5778 -0.5435 0
M  V30 9 O 0.0411 -0.1287 -3.5311 0
M  V30 10 C -0.009 0.9816 2.0373 0
M  V30 11 C -0.2713 -1.1084 3.5443 0 CFG=2
M  V30 12 O 0.5072 3.3809 -1.354 0
M  V30 13 O 1.9584 2.8823 0.2704 0
M  V30 14 C -0.3443 -0.0227 -4.8195 0
M  V30 15 O -0.1533 2.0647 2.5564 0
M  V30 16 O 1.1403 -1.2512 3.6618 0
M  V30 17 C -0.9048 -2.4911 3.6014 0
M  V30 18 O -1.136 0.7846 -5.2764 0
M  V30 19 N 0.2816 -0.9589 -5.5651 0
M  V30 20 H 1.0045 -1.5033 1.0852 0
M  V30 21 H -1.6747 0.7911 -2.7803 0
M  V30 22 H -0.237 1.8217 -2.9471 0
M  V30 23 H -1.7131 -0.3823 2.1003 0
M  V30 24 H -0.627 -0.5055 4.3875 0
M  V30 25 H 2.1478 3.8247 0.087 0
M  V30 26 H 1.3332 -1.5401 4.5727 0
M  V30 27 H -1.9945 -2.4338 3.5174 0
M  V30 28 H -0.5313 -3.1289 2.7926 0
M  V30 29 H -0.6512 -2.9915 4.5419 0
M  V30 30 H 0.093 -1.0039 -6.5547 0
M  V30 31 H 0.923 -1.6034 -5.1306 0
M  V30 END ATOM
M  V30 BEGIN BOND
M  V30 1 1 1 2
M  V30 2 1 1 3
M  V30 3 2 2 4
M  V30 4 1 2 5
M  V30 5 1 3 6
M  V30 6 1 3 7
M  V30 7 1 4 8
M  V30 8 1 5 9
M  V30 9 1 6 10
M  V30 10 1 7 11
M  V30 11 2 8 12
M  V30 12 1 8 13
M  V30 13 1 9 14
M  V30 14 2 10 15
M  V30 15 1 11 16
M  V30 16 1 11 17
M  V30 17 2 14 18
M  V30 18 1 14 19
M  V30 19 1 4 6
M  V30 20 1 7 10
M  V30 21 1 3 20
M  V30 22 1 5 21
M  V30 23 1 5 22
M  V30 24 1 7 23
M  V30 25 1 11 24
M  V30 26 1 13 25
M  V30 27 1 16 26
M  V30 28 1 17 27
M  V30 29 1 17 28
M  V30 30 1 17 29
M  V30 31 1 19 30
M  V30 32 1 19 31
M  V30 END BOND
M  V30 BEGIN COLLECTION
M  V30 MDLV30/STEABS ATOMS=(3 3 7 11)
M  V30 END COLLECTION
M  V30 END CTAB
M  END
>  <level_0>
2097

>  <index>
2097

>  <NO.>
2098

>  <Name>
ritipenem sodium

>  <SMILES>
C[C@@H](O)[C@H]1C(=O)N2C(C(=O)O)=C(COC(N)=O)S[C@H]12

>  <logBB>


>  <Class>
-1

>  <MW>
288.04

>  <nHBAcc>
6

>  <nHBDon>
3

>  <SLogP>
-0.71

>  <TopoPSA>
130.16

>  <MMFF94 Energy>
-77.597

$$$$
C[C@@H]1OC(=O)C[C@H](O)C[C@H](O)CC[C@@H](O)[C@H](O)C[C@H](O)C[C@]2(O)C[C@H](O)[C@@H](C(=O)O)[C@H](C[C@@H](O[C@@H]3O[C@H](C)[C@@H](O)[C@H](N)[C@@H]3O)/C=C\C=C/C=C\C=C/C=C\C=C/C=C\[C@H](C)[C@@H](O)[C@H]1C)O2
Actelion Java MolfileCreator 2.0

  0  0  0  0  0  0              0 V3000
M  V30 BEGIN CTAB
M  V30 COUNTS 138 140 0 0 0
M  V30 BEGIN ATOM
M  V30 1 O 0.6312 1.3416 7.4362 0
M  V30 2 C 0.7268 0.3595 6.71 0
M  V30 3 O 1.8813 -0.3179 6.4662 0
M  V30 4 C -0.4528 -0.2746 6.0137 0
M  V30 5 C 3.0946 0.2578 6.9963 0 CFG=2
M  V30 6 C -0.1149 -0.7546 4.6058 0 CFG=2
M  V30 7 C 4.3057 -0.165 6.0982 0 CFG=1
M  V30 8 C 3.2251 -0.2265 8.4439 0
M  V30 9 O 0.3875 0.3506 3.8368 0
M  V30 10 C -1.3242 -1.2816 3.8316 0
M  V30 11 C 4.1603 0.3666 4.6331 0 CFG=2
M  V30 12 C 5.6277 0.2963 6.7302 0
M  V30 13 C -2.0316 -2.4932 4.4452 0 CFG=2
M  V30 14 O 2.9975 -0.2308 4.0325 0
M  V30 15 C 5.3939 0.1403 3.691 0 CFG=2
M  V30 16 O -1.0678 -3.4403 4.9004 0
M  V30 17 C -2.9538 -3.196 3.436 0
M  V30 18 C 5.1317 0.8626 2.373 0
M  V30 19 C 5.7698 -1.34 3.5931 0
M  V30 20 C -4.1061 -2.3195 2.9489 0
M  V30 21 C 4.9122 0.4524 1.1129 0
M  V30 22 C -4.9769 -2.9536 1.8518 0 CFG=1
M  V30 23 C 4.964 -0.8788 0.5554 0
M  V30 24 O -6.0676 -2.0606 1.5767 0
M  V30 25 C -4.2662 -3.281 0.514 0 CFG=2
M  V30 26 C 4.2846 -1.3103 -0.5211 0
M  V30 27 O -3.4556 -4.4524 0.6548 0
M  V30 28 C -3.3802 -2.1684 -0.076 0
M  V30 29 C 3.2388 -0.5874 -1.2132 0
M  V30 30 C -4.0569 -0.8083 -0.277 0 CFG=2
M  V30 31 C 2.7826 -0.7992 -2.4579 0
M  V30 32 O -5.349 -0.9959 -0.8629 0
M  V30 33 C -3.2922 0.1387 -1.2095 0
M  V30 34 C 3.2838 -1.7453 -3.4318 0
M  V30 35 C -1.8795 0.5863 -0.7917 0 CFG=2
M  V30 36 C 2.9517 -1.8024 -4.7332 0
M  V30 37 O -1.5107 1.6064 -1.7224 0
M  V30 38 O -0.961 -0.488 -0.9026 0
M  V30 39 C -1.839 1.1336 0.6322 0
M  V30 40 C 2.0355 -0.9619 -5.478 0
M  V30 41 C -0.2241 2.2033 -1.5106 0 CFG=2
M  V30 42 C -0.4822 1.7582 0.943 0 CFG=1
M  V30 43 C 2.0524 0.3735 -5.6264 0
M  V30 44 C -0.1359 2.8143 -0.1061 0 CFG=1
M  V30 45 C 0.0127 3.2574 -2.6183 0
M  V30 46 O -0.5591 2.3625 2.2358 0
M  V30 47 C 3.0143 1.2934 -5.0601 0
M  V30 48 C 1.2603 3.3181 0.1475 0
M  V30 49 C -0.1071 2.6592 -4.0331 0 CFG=1
M  V30 50 C 2.9165 2.6308 -5.0075 0
M  V30 51 O 2.2711 2.6446 0.2682 0
M  V30 52 O 1.3312 4.6638 0.1812 0
M  V30 53 O -1.4938 2.6468 -4.396 0
M  V30 54 C 0.5779 3.5325 -5.0509 0
M  V30 55 C 1.8512 3.4864 -5.4764 0
M  V30 56 C -1.9516 1.3718 -4.8513 0 CFG=2
M  V30 57 O -1.456 1.1157 -6.1654 0
M  V30 58 C -3.4969 1.4442 -4.8498 0 CFG=1
M  V30 59 C -1.9238 -0.129 -6.7002 0 CFG=1
M  V30 60 O -3.9574 2.5523 -5.6516 0
M  V30 61 C -4.0757 0.1418 -5.4127 0 CFG=2
M  V30 62 C -3.4581 -0.1562 -6.7926 0 CFG=2
M  V30 63 C -1.287 -0.308 -8.0749 0
M  V30 64 N -5.5545 0.1762 -5.5446 0
M  V30 65 O -3.9232 -1.4373 -7.2302 0
M  V30 66 H -1.2353 0.492 5.9563 0
M  V30 67 H -0.8148 -1.0936 6.6426 0
M  V30 68 H 3.0228 1.3533 6.9837 0
M  V30 69 H 0.6614 -1.5281 4.6263 0
M  V30 70 H 4.2956 -1.2622 6.053 0
M  V30 71 H 4.0239 0.2946 8.9783 0
M  V30 72 H 3.421 -1.3039 8.4756 0
M  V30 73 H 2.2976 -0.0632 9.0029 0
M  V30 74 H 1.3604 0.3416 4.0054 0
M  V30 75 H -2.0409 -0.4635 3.6882 0
M  V30 76 H -0.973 -1.5407 2.8228 0
M  V30 77 H 3.9585 1.4447 4.6852 0
M  V30 78 H 5.6643 1.3879 6.8095 0
M  V30 79 H 6.4967 -0.0332 6.1553 0
M  V30 80 H 5.7664 -0.125 7.73 0
M  V30 81 H -2.6129 -2.1807 5.3196 0
M  V30 82 H 3.1477 -0.2789 3.0675 0
M  V30 83 H 6.2593 0.6587 4.1223 0
M  V30 84 H -0.6104 -3.8042 4.1208 0
M  V30 85 H -2.3366 -3.531 2.5963 0
M  V30 86 H -3.3552 -4.111 3.8899 0
M  V30 87 H 5.0479 1.9449 2.5121 0
M  V30 88 H 6.034 -1.7492 4.573 0
M  V30 89 H 6.6523 -1.4761 2.9596 0
M  V30 90 H 4.9495 -1.9491 3.2005 0
M  V30 91 H -4.7469 -2.0735 3.8064 0
M  V30 92 H -3.7365 -1.3533 2.5955 0
M  V30 93 H 4.6687 1.2343 0.3887 0
M  V30 94 H -5.4135 -3.8797 2.2462 0
M  V30 95 H 5.6833 -1.5673 0.9869 0
M  V30 96 H -6.5851 -1.9781 2.3999 0
M  V30 97 H -5.0326 -3.5243 -0.2333 0
M  V30 98 H 4.4988 -2.3155 -0.8773 0
M  V30 99 H -4.0574 -5.2163 0.7037 0
M  V30 100 H -3.0202 -2.5355 -1.0473 0
M  V30 101 H -2.4779 -2.0528 0.5356 0
M  V30 102 H 2.7612 0.2113 -0.6461 0
M  V30 103 H -4.2146 -0.3057 0.6817 0
M  V30 104 H 1.968 -0.1598 -2.7913 0
M  V30 105 H -5.9331 -1.3063 -0.1361 0
M  V30 106 H -3.9131 1.0337 -1.3623 0
M  V30 107 H -3.2428 -0.3224 -2.206 0
M  V30 108 H 4.0065 -2.4766 -3.0776 0
M  V30 109 H 3.3906 -2.6027 -5.3294 0
M  V30 110 H -1.1616 -0.9554 -1.7303 0
M  V30 111 H -2.0348 0.3453 1.3665 0
M  V30 112 H -2.6191 1.8942 0.7705 0
M  V30 113 H 1.2687 -1.5172 -6.0178 0
M  V30 114 H 0.5388 1.4241 -1.6285 0
M  V30 115 H 0.295 0.9841 0.9818 0
M  V30 116 H 1.2733 0.8206 -6.2433 0
M  V30 117 H -0.8406 3.6508 -0.0053 0
M  V30 118 H -0.7238 4.0637 -2.5035 0
M  V30 119 H 1.011 3.6899 -2.4836 0
M  V30 120 H -0.331 1.6593 2.888 0
M  V30 121 H 3.9206 0.8484 -4.651 0
M  V30 122 H 0.3092 1.6491 -4.0359 0
M  V30 123 H 3.7669 3.1768 -4.598 0
M  V30 124 H 2.2705 4.8586 0.3784 0
M  V30 125 H -0.0592 4.2977 -5.4933 0
M  V30 126 H 2.169 4.2315 -6.2059 0
M  V30 127 H -1.6171 0.5794 -4.1697 0
M  V30 128 H -3.8623 1.6319 -3.8345 0
M  V30 129 H -1.5682 -0.9466 -6.0594 0
M  V30 130 H -3.2732 3.2432 -5.5322 0
M  V30 131 H -3.8394 -0.688 -4.7344 0
M  V30 132 H -3.7963 0.5904 -7.523 0
M  V30 133 H -1.5671 -1.2634 -8.5283 0
M  V30 134 H -1.5828 0.5022 -8.7505 0
M  V30 135 H -0.1955 -0.2685 -8.0002 0
M  V30 136 H -5.9564 0.3028 -4.6126 0
M  V30 137 H -5.7764 1.0593 -6.0225 0
M  V30 138 H -4.8824 -1.422 -7.0249 0
M  V30 END ATOM
M  V30 BEGIN BOND
M  V30 1 2 1 2
M  V30 2 1 2 3
M  V30 3 1 2 4
M  V30 4 1 3 5
M  V30 5 1 4 6
M  V30 6 1 5 7
M  V30 7 1 5 8
M  V30 8 1 6 9
M  V30 9 1 6 10
M  V30 10 1 7 11
M  V30 11 1 7 12
M  V30 12 1 10 13
M  V30 13 1 11 14
M  V30 14 1 11 15
M  V30 15 1 13 16
M  V30 16 1 13 17
M  V30 17 1 15 18
M  V30 18 1 15 19
M  V30 19 1 17 20
M  V30 20 2 18 21
M  V30 21 1 20 22
M  V30 22 1 21 23
M  V30 23 1 22 24
M  V30 24 1 22 25
M  V30 25 2 23 26
M  V30 26 1 25 27
M  V30 27 1 25 28
M  V30 28 1 26 29
M  V30 29 1 28 30
M  V30 30 2 29 31
M  V30 31 1 30 32
M  V30 32 1 30 33
M  V30 33 1 31 34
M  V30 34 1 33 35
M  V30 35 2 34 36
M  V30 36 1 35 37
M  V30 37 1 35 38
M  V30 38 1 35 39
M  V30 39 1 36 40
M  V30 40 1 37 41
M  V30 41 1 39 42
M  V30 42 2 40 43
M  V30 43 1 41 44
M  V30 44 1 41 45
M  V30 45 1 42 46
M  V30 46 1 43 47
M  V30 47 1 44 48
M  V30 48 1 45 49
M  V30 49 2 47 50
M  V30 50 2 48 51
M  V30 51 1 48 52
M  V30 52 1 49 53
M  V30 53 1 49 54
M  V30 54 1 50 55
M  V30 55 1 53 56
M  V30 56 1 56 57
M  V30 57 1 56 58
M  V30 58 1 57 59
M  V30 59 1 58 60
M  V30 60 1 58 61
M  V30 61 1 59 62
M  V30 62 1 59 63
M  V30 63 1 61 64
M  V30 64 1 62 65
M  V30 65 1 42 44
M  V30 66 2 54 55
M  V30 67 1 61 62
M  V30 68 1 4 66
M  V30 69 1 4 67
M  V30 70 1 5 68
M  V30 71 1 6 69
M  V30 72 1 7 70
M  V30 73 1 8 71
M  V30 74 1 8 72
M  V30 75 1 8 73
M  V30 76 1 9 74
M  V30 77 1 10 75
M  V30 78 1 10 76
M  V30 79 1 11 77
M  V30 80 1 12 78
M  V30 81 1 12 79
M  V30 82 1 12 80
M  V30 83 1 13 81
M  V30 84 1 14 82
M  V30 85 1 15 83
M  V30 86 1 16 84
M  V30 87 1 17 85
M  V30 88 1 17 86
M  V30 89 1 18 87
M  V30 90 1 19 88
M  V30 91 1 19 89
M  V30 92 1 19 90
M  V30 93 1 20 91
M  V30 94 1 20 92
M  V30 95 1 21 93
M  V30 96 1 22 94
M  V30 97 1 23 95
M  V30 98 1 24 96
M  V30 99 1 25 97
M  V30 100 1 26 98
M  V30 101 1 27 99
M  V30 102 1 28 100
M  V30 103 1 28 101
M  V30 104 1 29 102
M  V30 105 1 30 103
M  V30 106 1 31 104
M  V30 107 1 32 105
M  V30 108 1 33 106
M  V30 109 1 33 107
M  V30 110 1 34 108
M  V30 111 1 36 109
M  V30 112 1 38 110
M  V30 113 1 39 111
M  V30 114 1 39 112
M  V30 115 1 40 113
M  V30 116 1 41 114
M  V30 117 1 42 115
M  V30 118 1 43 116
M  V30 119 1 44 117
M  V30 120 1 45 118
M  V30 121 1 45 119
M  V30 122 1 46 120
M  V30 123 1 47 121
M  V30 124 1 49 122
M  V30 125 1 50 123
M  V30 126 1 52 124
M  V30 127 1 54 125
M  V30 128 1 55 126
M  V30 129 1 56 127
M  V30 130 1 58 128
M  V30 131 1 59 129
M  V30 132 1 60 130
M  V30 133 1 61 131
M  V30 134 1 62 132
M  V30 135 1 63 133
M  V30 136 1 63 134
M  V30 137 1 63 135
M  V30 138 1 64 136
M  V30 139 1 64 137
M  V30 140 1 65 138
M  V30 END BOND
M  V30 BEGIN COLLECTION
M  V30 MDLV30/STEABS ATOMS=(19 5 6 7 11 13 15 22 25 30 35 41 42 44 49 56 58 59 61 62)
M  V30 END COLLECTION
M  V30 END CTAB
M  END
>  <level_0>
2116

>  <index>
2116

>  <NO.>
2117

>  <Name>
amphotericinb

>  <SMILES>
C[C@@H]1OC(=O)C[C@H](O)C[C@H](O)CC[C@@H](O)[C@H](O)C[C@H](O)C[C@]2(O)C[C@H](O)[C@@H](C(=O)O)[C@H](C[C@@H](O[C@@H]3O[C@H](C)[C@@H](O)[C@H](N)[C@@H]3O)/C=C\C=C/C=C\C=C/C=C\C=C/C=C\[C@H](C)[C@@H](O)[C@H]1C)O2

>  <logBB>


>  <Class>
-1

>  <MW>
923.49

>  <nHBAcc>
17

>  <nHBDon>
12

>  <SLogP>
0.71

>  <TopoPSA>
319.61

>  <MMFF94 Energy>
127.43

$$$$
C[C@@](Cc1ccc(O)c(O)c1)(NN)C(=O)O
Actelion Java MolfileCreator 2.0

  0  0  0  0  0  0              0 V3000
M  V30 BEGIN CTAB
M  V30 COUNTS 30 30 0 0 0
M  V30 BEGIN ATOM
M  V30 1 O 0.2347 0.8608 -2.8979 0
M  V30 2 C 0.4691 1.2242 -1.7509 0
M  V30 3 O 1.7474 1.3431 -1.3442 0
M  V30 4 C -0.6048 1.5406 -0.6819 0 CFG=1
M  V30 5 N -1.5902 2.4402 -1.3844 0
M  V30 6 C -1.2706 0.1939 -0.2745 0
M  V30 7 C 0.0013 2.2936 0.5149 0
M  V30 8 N -2.7464 2.7419 -0.558 0
M  V30 9 C -0.3583 -0.8341 0.3645 0
M  V30 10 C 0.3302 -1.7656 -0.4278 0
M  V30 11 C -0.1989 -0.8742 1.761 0
M  V30 12 C 1.1633 -2.699 0.1745 0
M  V30 13 C 0.6533 -1.8078 2.3556 0
M  V30 14 O 1.7797 -3.6345 -0.6053 0
M  V30 15 C 1.344 -2.7028 1.5536 0
M  V30 16 O 2.2248 -3.568 2.1349 0
M  V30 17 H 2.2721 1.0788 -2.128 0
M  V30 18 H -1.8661 1.9539 -2.2505 0
M  V30 19 H -2.1008 0.3765 0.4211 0
M  V30 20 H -1.7354 -0.2717 -1.1555 0
M  V30 21 H 0.8375 1.7469 0.9638 0
M  V30 22 H 0.3958 3.2697 0.2073 0
M  V30 23 H -0.7358 2.4626 1.3073 0
M  V30 24 H -2.4984 3.4099 0.1796 0
M  V30 25 H -3.4591 3.2353 -1.1067 0
M  V30 26 H 0.2058 -1.7804 -1.5079 0
M  V30 27 H -0.734 -0.17 2.3952 0
M  V30 28 H 0.7871 -1.8217 3.433 0
M  V30 29 H 1.7336 -4.4689 -0.1031 0
M  V30 30 H 2.9651 -3.6563 1.5069 0
M  V30 END ATOM
M  V30 BEGIN BOND
M  V30 1 2 1 2
M  V30 2 1 2 3
M  V30 3 1 2 4
M  V30 4 1 4 5
M  V30 5 1 4 6
M  V30 6 1 4 7
M  V30 7 1 5 8
M  V30 8 1 6 9
M  V30 9 2 9 10
M  V30 10 1 9 11
M  V30 11 1 10 12
M  V30 12 2 11 13
M  V30 13 1 12 14
M  V30 14 2 12 15
M  V30 15 1 15 16
M  V30 16 1 13 15
M  V30 17 1 3 17
M  V30 18 1 5 18
M  V30 19 1 6 19
M  V30 20 1 6 20
M  V30 21 1 7 21
M  V30 22 1 7 22
M  V30 23 1 7 23
M  V30 24 1 8 24
M  V30 25 1 8 25
M  V30 26 1 10 26
M  V30 27 1 11 27
M  V30 28 1 13 28
M  V30 29 1 14 29
M  V30 30 1 16 30
M  V30 END BOND
M  V30 BEGIN COLLECTION
M  V30 MDLV30/STEABS ATOMS=(1 4)
M  V30 END COLLECTION
M  V30 END CTAB
M  END
>  <level_0>
2117

>  <index>
2117

>  <NO.>
2118

>  <Name>
carbidopa

>  <SMILES>
C[C@@](Cc1ccc(O)c(O)c1)(NN)C(=O)O

>  <logBB>


>  <Class>
-1

>  <MW>
226.1

>  <nHBAcc>
5

>  <nHBDon>
5

>  <SLogP>
-0.05

>  <TopoPSA>
115.81

>  <MMFF94 Energy>
93.552

$$$$
C[C@H](O)C1C(=O)N2C(C(=O)O)=C(S[C@@H]3CN[C@H](C(=O)N(C)C)C3)[C@H](C)C12
Actelion Java MolfileCreator 2.0

  0  0  0  0  0  0              0 V3000
M  V30 BEGIN CTAB
M  V30 COUNTS 51 53 0 0 0
M  V30 BEGIN ATOM
M  V30 1 S 2.254 1.1265 0.2413 0
M  V30 2 C 1.3429 -0.3103 0.4931 0
M  V30 3 C 1.8503 1.6217 -1.4793 0 CFG=2
M  V30 4 C 0.107 -0.4039 1.0181 0
M  V30 5 C 1.9478 -1.6905 0.308 0 CFG=1
M  V30 6 C 2.3654 3.0438 -1.7266 0
M  V30 7 C 0.3651 1.7722 -1.8202 0
M  V30 8 N -0.2932 -1.7095 1.1293 0
M  V30 9 C -0.8082 0.6864 1.423 0
M  V30 10 C 0.7547 -2.6137 0.622 0
M  V30 11 C 2.4579 -1.9693 -1.1021 0
M  V30 12 N 1.2905 3.8939 -1.2186 0
M  V30 13 C 0.0271 3.2567 -1.6353 0 CFG=2
M  V30 14 C -0.481 -2.3515 2.3133 0
M  V30 15 O -1.997 0.7246 1.1498 0
M  V30 16 O -0.1692 1.6784 2.0604 0
M  V30 17 C 0.6142 -3.387 1.97 0
M  V30 18 C -1.1023 3.4659 -0.5964 0
M  V30 19 O -1.1696 -2.108 3.2757 0
M  V30 20 C 0.1348 -4.8225 1.8608 0 CFG=1
M  V30 21 O -0.8599 3.7689 0.5777 0
M  V30 22 N -2.4149 3.2695 -1.0259 0
M  V30 23 O 1.1363 -5.5646 1.1643 0
M  V30 24 C -0.0686 -5.4315 3.2407 0
M  V30 25 C -3.4992 3.4524 -0.0702 0
M  V30 26 C -2.8269 2.8258 -2.3487 0
M  V30 27 H 2.3355 0.9078 -2.1521 0
M  V30 28 H 2.7565 -1.8482 1.0318 0
M  V30 29 H 3.3218 3.262 -1.2409 0
M  V30 30 H 2.4909 3.2167 -2.8029 0
M  V30 31 H -0.2938 1.0959 -1.2752 0
M  V30 32 H 0.2403 1.5275 -2.884 0
M  V30 33 H 0.3794 -3.1681 -0.2495 0
M  V30 34 H 3.3341 -1.3561 -1.336 0
M  V30 35 H 1.6897 -1.767 -1.8572 0
M  V30 36 H 2.7504 -3.0202 -1.2028 0
M  V30 37 H 1.3564 4.8566 -1.5377 0
M  V30 38 H -0.2691 3.7095 -2.5876 0
M  V30 39 H -0.7062 2.4968 1.9236 0
M  V30 40 H 1.4957 -3.2832 2.6167 0
M  V30 41 H -0.7927 -4.889 1.281 0
M  V30 42 H 0.8676 -6.5011 1.1728 0
M  V30 43 H 0.8644 -5.4221 3.8151 0
M  V30 44 H -0.8286 -4.8899 3.8116 0
M  V30 45 H -0.3775 -6.4789 3.157 0
M  V30 46 H -3.1497 3.807 0.9023 0
M  V30 47 H -4.204 4.1844 -0.4761 0
M  V30 48 H -4.0115 2.4956 0.068 0
M  V30 49 H -1.9932 2.6291 -3.02 0
M  V30 50 H -3.4611 3.5989 -2.7927 0
M  V30 51 H -3.4048 1.9025 -2.243 0
M  V30 END ATOM
M  V30 BEGIN BOND
M  V30 1 1 1 2
M  V30 2 1 1 3
M  V30 3 2 2 4
M  V30 4 1 2 5
M  V30 5 1 3 6
M  V30 6 1 3 7
M  V30 7 1 4 8
M  V30 8 1 4 9
M  V30 9 1 5 10
M  V30 10 1 5 11
M  V30 11 1 6 12
M  V30 12 1 7 13
M  V30 13 1 8 14
M  V30 14 2 9 15
M  V30 15 1 9 16
M  V30 16 1 10 17
M  V30 17 1 13 18
M  V30 18 2 14 19
M  V30 19 1 17 20
M  V30 20 2 18 21
M  V30 21 1 18 22
M  V30 22 1 20 23
M  V30 23 1 20 24
M  V30 24 1 22 25
M  V30 25 1 22 26
M  V30 26 1 8 10
M  V30 27 1 12 13
M  V30 28 1 14 17
M  V30 29 1 3 27
M  V30 30 1 5 28
M  V30 31 1 6 29
M  V30 32 1 6 30
M  V30 33 1 7 31
M  V30 34 1 7 32
M  V30 35 1 10 33
M  V30 36 1 11 34
M  V30 37 1 11 35
M  V30 38 1 11 36
M  V30 39 1 12 37
M  V30 40 1 13 38
M  V30 41 1 16 39
M  V30 42 1 17 40
M  V30 43 1 20 41
M  V30 44 1 23 42
M  V30 45 1 24 43
M  V30 46 1 24 44
M  V30 47 1 24 45
M  V30 48 1 25 46
M  V30 49 1 25 47
M  V30 50 1 25 48
M  V30 51 1 26 49
M  V30 52 1 26 50
M  V30 53 1 26 51
M  V30 END BOND
M  V30 BEGIN COLLECTION
M  V30 MDLV30/STEABS ATOMS=(4 3 5 13 20)
M  V30 END COLLECTION
M  V30 END CTAB
M  END
>  <level_0>
2122

>  <index>
2122

>  <NO.>
2123

>  <Name>
meropenem

>  <SMILES>
C[C@H](O)C1C(=O)N2C(C(=O)O)=C(S[C@@H]3CN[C@H](C(=O)N(C)C)C3)[C@H](C)C12

>  <logBB>


>  <Class>
-1

>  <MW>
383.15

>  <nHBAcc>
6

>  <nHBDon>
3

>  <SLogP>
-0.31

>  <TopoPSA>
110.18

>  <MMFF94 Energy>
80.068

$$$$
C[C@H](O)[C@H]1C(=O)N2C(C(=O)O)=C(SCCN=CN)C[C@H]12
Actelion Java MolfileCreator 2.0

  0  0  0  0  0  0              0 V3000
M  V30 BEGIN CTAB
M  V30 COUNTS 37 38 0 0 0
M  V30 BEGIN ATOM
M  V30 1 S -1.2051 1.2854 -1.9287 0
M  V30 2 C -1.1099 1.01 -0.2347 0
M  V30 3 C 0.1915 0.2555 -2.4884 0
M  V30 4 C -1.8305 0.1537 0.5079 0
M  V30 5 C -0.147 1.7912 0.6272 0
M  V30 6 C 0.2755 0.2525 -4.0141 0
M  V30 7 N -1.5117 0.2714 1.8371 0
M  V30 8 C -2.8428 -0.8406 0.0952 0
M  V30 9 C -0.5315 1.3536 2.0442 0 CFG=1
M  V30 10 N 1.4438 -0.5477 -4.4149 0
M  V30 11 C -0.8416 -0.6727 2.5498 0
M  V30 12 O -3.8447 -1.1375 0.7234 0
M  V30 13 O -2.536 -1.4663 -1.054 0
M  V30 14 C 0.2909 0.3206 2.8794 0 CFG=2
M  V30 15 C 1.5358 -0.6901 -5.6868 0
M  V30 16 O -1.0265 -1.8551 2.7188 0
M  V30 17 C 0.5301 0.6308 4.3492 0 CFG=1
M  V30 18 N 2.5283 -1.3886 -6.2755 0
M  V30 19 O -0.681 1.0144 4.9944 0
M  V30 20 C 1.1513 -0.5554 5.0731 0
M  V30 21 H 1.1211 0.6492 -2.0624 0
M  V30 22 H 0.0652 -0.7685 -2.1197 0
M  V30 23 H -0.2925 2.8699 0.5044 0
M  V30 24 H 0.8932 1.5393 0.3972 0
M  V30 25 H -0.6412 -0.1776 -4.4378 0
M  V30 26 H 0.3901 1.278 -4.3878 0
M  V30 27 H -0.9687 2.1735 2.6288 0
M  V30 28 H -3.268 -2.1075 -1.1635 0
M  V30 29 H 1.2299 0.0367 2.3835 0
M  V30 30 H 0.8187 -0.2576 -6.4082 0
M  V30 31 H 1.2124 1.4846 4.4257 0
M  V30 32 H 2.5969 -1.5054 -7.2762 0
M  V30 33 H 3.2258 -1.8213 -5.6838 0
M  V30 34 H -1.186 0.2105 5.2192 0
M  V30 35 H 2.0964 -0.8537 4.609 0
M  V30 36 H 0.4804 -1.4211 5.0709 0
M  V30 37 H 1.3379 -0.3057 6.1231 0
M  V30 END ATOM
M  V30 BEGIN BOND
M  V30 1 1 1 2
M  V30 2 1 1 3
M  V30 3 2 2 4
M  V30 4 1 2 5
M  V30 5 1 3 6
M  V30 6 1 4 7
M  V30 7 1 4 8
M  V30 8 1 5 9
M  V30 9 1 6 10
M  V30 10 1 7 11
M  V30 11 2 8 12
M  V30 12 1 8 13
M  V30 13 1 9 14
M  V30 14 2 10 15
M  V30 15 2 11 16
M  V30 16 1 14 17
M  V30 17 1 15 18
M  V30 18 1 17 19
M  V30 19 1 17 20
M  V30 20 1 7 9
M  V30 21 1 11 14
M  V30 22 1 3 21
M  V30 23 1 3 22
M  V30 24 1 5 23
M  V30 25 1 5 24
M  V30 26 1 6 25
M  V30 27 1 6 26
M  V30 28 1 9 27
M  V30 29 1 13 28
M  V30 30 1 14 29
M  V30 31 1 15 30
M  V30 32 1 17 31
M  V30 33 1 18 32
M  V30 34 1 18 33
M  V30 35 1 19 34
M  V30 36 1 20 35
M  V30 37 1 20 36
M  V30 38 1 20 37
M  V30 END BOND
M  V30 BEGIN COLLECTION
M  V30 MDLV30/STEABS ATOMS=(3 9 14 17)
M  V30 END COLLECTION
M  V30 END CTAB
M  END
>  <level_0>
2123

>  <index>
2123

>  <NO.>
2124

>  <Name>
imipenem-1-wasser

>  <SMILES>
C[C@H](O)[C@H]1C(=O)N2C(C(=O)O)=C(SCCN=CN)C[C@H]12

>  <logBB>


>  <Class>
-1

>  <MW>
299.09

>  <nHBAcc>
5

>  <nHBDon>
3

>  <SLogP>
-0.39

>  <TopoPSA>
116.22

>  <MMFF94 Energy>
8.8743

$$$$
C[C@H]1O[C@@H](O[C@H]2[C@@H](O)C[C@H](O[C@H]3[C@@H](O)C[C@H](O[C@H]4CC[C@]5(C)[C@H]6CC[C@]7(C)[C@H](C8=CC(=O)OC8)CC[C@]7(O)[C@@H]6CC[C@@H]5C4)O[C@@H]3C)O[C@@H]2C)C[C@H](O)[C@@H]1O
Actelion Java MolfileCreator 2.0

  0  0  0  0  0  0              0 V3000
M  V30 BEGIN CTAB
M  V30 COUNTS 118 125 0 0 0
M  V30 BEGIN ATOM
M  V30 1 O 0.4015 6.6014 10.481 0
M  V30 2 C -0.5261 5.8215 10.371 0
M  V30 3 O -1.7873 6.0084 10.838 0
M  V30 4 C -0.4469 4.5198 9.712 0
M  V30 5 C -2.5836 4.873 10.5007 0
M  V30 6 C -1.6578 3.9653 9.7778 0
M  V30 7 C -2.1126 2.6112 9.3037 0 CFG=1
M  V30 8 C -2.851 2.5448 7.9282 0 CFG=2
M  V30 9 C -1.0038 1.5448 9.1815 0
M  V30 10 C -2.8641 1.01 7.6652 0 CFG=1
M  V30 11 C -2.0705 3.2826 6.8157 0
M  V30 12 C -4.2755 3.1279 8.0327 0
M  V30 13 C -1.4634 0.5497 8.1088 0
M  V30 14 O -3.8125 0.4159 8.568 0
M  V30 15 C -3.255 0.6224 6.2102 0 CFG=1
M  V30 16 C -2.561 2.9314 5.4125 0
M  V30 17 C -2.4631 1.4193 5.1313 0 CFG=2
M  V30 18 C -3.1523 -0.8969 5.9704 0
M  V30 19 C -2.8728 1.0227 3.6591 0 CFG=2
M  V30 20 C -3.5291 -1.2956 4.5476 0
M  V30 21 C -2.7458 -0.5237 3.4766 0 CFG=2
M  V30 22 C -1.9803 1.7141 2.5863 0
M  V30 23 C -4.3289 1.4591 3.3486 0
M  V30 24 C -1.2744 -1.0024 3.4386 0
M  V30 25 C -0.5289 1.237 2.5791 0
M  V30 26 C -0.4335 -0.2764 2.386 0 CFG=2
M  V30 27 O -0.9424 -0.6378 1.0985 0
M  V30 28 C 0.0819 -0.9108 0.1404 0 CFG=2
M  V30 29 O 0.8544 0.2593 -0.1166 0
M  V30 30 C -0.6138 -1.353 -1.1414 0
M  V30 31 C 1.9157 0.0057 -1.0423 0 CFG=1
M  V30 32 C 0.395 -1.5988 -2.2523 0 CFG=1
M  V30 33 C 1.3584 -0.4055 -2.4209 0 CFG=2
M  V30 34 C 2.7479 1.2823 -1.1335 0
M  V30 35 O 1.1312 -2.7903 -1.9568 0
M  V30 36 O 2.4696 -0.6921 -3.2838 0
M  V30 37 C 2.1136 -1.0204 -4.6238 0 CFG=2
M  V30 38 O 1.8342 -2.4189 -4.6853 0
M  V30 39 C 3.3191 -0.7129 -5.5031 0
M  V30 40 C 1.4335 -2.8222 -6.0005 0 CFG=1
M  V30 41 C 3.0605 -1.1402 -6.9397 0 CFG=1
M  V30 42 C 2.573 -2.6024 -7.0183 0 CFG=2
M  V30 43 C 1.0328 -4.2926 -5.9163 0
M  V30 44 O 2.085 -0.2638 -7.5127 0
M  V30 45 O 2.0845 -2.9686 -8.3173 0
M  V30 46 C 3.0479 -2.8848 -9.3636 0 CFG=2
M  V30 47 O 3.0676 -1.5414 -9.8511 0
M  V30 48 C 2.5928 -3.8265 -10.4759 0
M  V30 49 C 4.0282 -1.3664 -10.9007 0 CFG=1
M  V30 50 C 3.5008 -3.7 -11.6871 0 CFG=1
M  V30 51 C 3.6544 -2.2336 -12.1156 0 CFG=2
M  V30 52 C 4.0491 0.1155 -11.2594 0
M  V30 53 O 4.7868 -4.2425 -11.3639 0
M  V30 54 O 4.6672 -2.1541 -13.1232 0
M  V30 55 H 0.4646 4.1476 9.2817 0
M  V30 56 H -3.4187 5.2096 9.8834 0
M  V30 57 H -2.9651 4.4219 11.4217 0
M  V30 58 H -2.7956 2.2351 10.0812 0
M  V30 59 H -0.0356 1.961 8.8848 0
M  V30 60 H -0.8504 1.0401 10.1425 0
M  V30 61 H -2.1507 4.3684 6.9535 0
M  V30 62 H -0.9993 3.0528 6.87 0
M  V30 63 H -4.894 2.8475 7.1746 0
M  V30 64 H -4.2578 4.2215 8.0678 0
M  V30 65 H -4.7929 2.7791 8.933 0
M  V30 66 H -0.7429 0.5674 7.2849 0
M  V30 67 H -1.4693 -0.4666 8.5181 0
M  V30 68 H -3.699 -0.5491 8.5481 0
M  V30 69 H -4.3195 0.8696 6.1045 0
M  V30 70 H -3.5893 3.2855 5.2868 0
M  V30 71 H -1.9459 3.4935 4.7032 0
M  V30 72 H -1.406 1.1562 5.2529 0
M  V30 73 H -2.139 -1.25 6.1896 0
M  V30 74 H -3.8184 -1.4338 6.6553 0
M  V30 75 H -3.3703 -2.3738 4.4221 0
M  V30 76 H -4.6044 -1.1355 4.4048 0
M  V30 77 H -3.1894 -0.7923 2.507 0
M  V30 78 H -2.4048 1.5228 1.5905 0
M  V30 79 H -2.0004 2.8032 2.6977 0
M  V30 80 H -5.0522 1.0823 4.0756 0
M  V30 81 H -4.644 1.092 2.3645 0
M  V30 82 H -4.4241 2.5498 3.3238 0
M  V30 83 H -1.2651 -2.0779 3.2192 0
M  V30 84 H -0.7967 -0.8751 4.4159 0
M  V30 85 H -0.0315 1.5266 3.5112 0
M  V30 86 H -0.005 1.7556 1.7691 0
M  V30 87 H 0.6099 -0.5988 2.4928 0
M  V30 88 H 0.7241 -1.7125 0.5279 0
M  V30 89 H -1.3169 -0.5723 -1.4596 0
M  V30 90 H -1.2054 -2.2549 -0.9434 0
M  V30 91 H 2.5663 -0.7822 -0.6405 0
M  V30 92 H -0.1495 -1.7876 -3.1839 0
M  V30 93 H 0.793 0.4412 -2.8334 0
M  V30 94 H 3.6157 1.1553 -1.7873 0
M  V30 95 H 2.1442 2.1165 -1.5079 0
M  V30 96 H 3.1038 1.5751 -0.1395 0
M  V30 97 H 1.7199 -2.9186 -2.7323 0
M  V30 98 H 1.2384 -0.437 -4.938 0
M  V30 99 H 4.1977 -1.2471 -5.1194 0
M  V30 100 H 3.5455 0.3586 -5.4481 0
M  V30 101 H 0.5408 -2.2548 -6.2955 0
M  V30 102 H 3.9826 -1.0096 -7.5163 0
M  V30 103 H 3.4098 -3.2617 -6.7505 0
M  V30 104 H 0.6625 -4.6678 -6.8748 0
M  V30 105 H 1.8799 -4.911 -5.5997 0
M  V30 106 H 0.2475 -4.4291 -5.1645 0
M  V30 107 H 2.0097 -0.5504 -8.4493 0
M  V30 108 H 4.0394 -3.1713 -8.9899 0
M  V30 109 H 1.5636 -3.5796 -10.7665 0
M  V30 110 H 2.5822 -4.8558 -10.0983 0
M  V30 111 H 5.026 -1.6302 -10.5266 0
M  V30 112 H 3.1147 -4.2963 -12.5209 0
M  V30 113 H 2.7053 -1.8806 -12.5385 0
M  V30 114 H 4.7888 0.3324 -12.0355 0
M  V30 115 H 3.0649 0.4481 -11.6076 0
M  V30 116 H 4.2871 0.7165 -10.3747 0
M  V30 117 H 5.4018 -3.901 -12.0449 0
M  V30 118 H 4.2731 -2.4715 -13.9562 0
M  V30 END ATOM
M  V30 BEGIN BOND
M  V30 1 2 1 2
M  V30 2 1 2 3
M  V30 3 1 2 4
M  V30 4 1 3 5
M  V30 5 2 4 6
M  V30 6 1 6 7
M  V30 7 1 7 8
M  V30 8 1 7 9
M  V30 9 1 8 10
M  V30 10 1 8 11
M  V30 11 1 8 12
M  V30 12 1 9 13
M  V30 13 1 10 14
M  V30 14 1 10 15
M  V30 15 1 11 16
M  V30 16 1 15 17
M  V30 17 1 15 18
M  V30 18 1 17 19
M  V30 19 1 18 20
M  V30 20 1 19 21
M  V30 21 1 19 22
M  V30 22 1 19 23
M  V30 23 1 21 24
M  V30 24 1 22 25
M  V30 25 1 24 26
M  V30 26 1 26 27
M  V30 27 1 27 28
M  V30 28 1 28 29
M  V30 29 1 28 30
M  V30 30 1 29 31
M  V30 31 1 30 32
M  V30 32 1 31 33
M  V30 33 1 31 34
M  V30 34 1 32 35
M  V30 35 1 33 36
M  V30 36 1 36 37
M  V30 37 1 37 38
M  V30 38 1 37 39
M  V30 39 1 38 40
M  V30 40 1 39 41
M  V30 41 1 40 42
M  V30 42 1 40 43
M  V30 43 1 41 44
M  V30 44 1 42 45
M  V30 45 1 45 46
M  V30 46 1 46 47
M  V30 47 1 46 48
M  V30 48 1 47 49
M  V30 49 1 48 50
M  V30 50 1 49 51
M  V30 51 1 49 52
M  V30 52 1 50 53
M  V30 53 1 51 54
M  V30 54 1 5 6
M  V30 55 1 10 13
M  V30 56 1 16 17
M  V30 57 1 20 21
M  V30 58 1 25 26
M  V30 59 1 32 33
M  V30 60 1 41 42
M  V30 61 1 50 51
M  V30 62 1 4 55
M  V30 63 1 5 56
M  V30 64 1 5 57
M  V30 65 1 7 58
M  V30 66 1 9 59
M  V30 67 1 9 60
M  V30 68 1 11 61
M  V30 69 1 11 62
M  V30 70 1 12 63
M  V30 71 1 12 64
M  V30 72 1 12 65
M  V30 73 1 13 66
M  V30 74 1 13 67
M  V30 75 1 14 68
M  V30 76 1 15 69
M  V30 77 1 16 70
M  V30 78 1 16 71
M  V30 79 1 17 72
M  V30 80 1 18 73
M  V30 81 1 18 74
M  V30 82 1 20 75
M  V30 83 1 20 76
M  V30 84 1 21 77
M  V30 85 1 22 78
M  V30 86 1 22 79
M  V30 87 1 23 80
M  V30 88 1 23 81
M  V30 89 1 23 82
M  V30 90 1 24 83
M  V30 91 1 24 84
M  V30 92 1 25 85
M  V30 93 1 25 86
M  V30 94 1 26 87
M  V30 95 1 28 88
M  V30 96 1 30 89
M  V30 97 1 30 90
M  V30 98 1 31 91
M  V30 99 1 32 92
M  V30 100 1 33 93
M  V30 101 1 34 94
M  V30 102 1 34 95
M  V30 103 1 34 96
M  V30 104 1 35 97
M  V30 105 1 37 98
M  V30 106 1 39 99
M  V30 107 1 39 100
M  V30 108 1 40 101
M  V30 109 1 41 102
M  V30 110 1 42 103
M  V30 111 1 43 104
M  V30 112 1 43 105
M  V30 113 1 43 106
M  V30 114 1 44 107
M  V30 115 1 46 108
M  V30 116 1 48 109
M  V30 117 1 48 110
M  V30 118 1 49 111
M  V30 119 1 50 112
M  V30 120 1 51 113
M  V30 121 1 52 114
M  V30 122 1 52 115
M  V30 123 1 52 116
M  V30 124 1 53 117
M  V30 125 1 54 118
M  V30 END BOND
M  V30 BEGIN COLLECTION
M  V30 MDLV30/STEABS ATOMS=(20 7 8 10 15 17 19 21 26 28 31 32 33 37 40 41 42 46 49 50 51)
M  V30 END COLLECTION
M  V30 END CTAB
M  END
>  <level_0>
2129

>  <index>
2129

>  <NO.>
2130

>  <Name>
digitoxin

>  <SMILES>
C[C@H]1O[C@@H](O[C@H]2[C@@H](O)C[C@H](O[C@H]3[C@@H](O)C[C@H](O[C@H]4CC[C@]5(C)[C@H]6CC[C@]7(C)[C@H](C8=CC(=O)OC8)CC[C@]7(O)[C@@H]6CC[C@@H]5C4)O[C@@H]3C)O[C@@H]2C)C[C@H](O)[C@@H]1O

>  <logBB>


>  <Class>
-1

>  <MW>
764.43

>  <nHBAcc>
13

>  <nHBDon>
5

>  <SLogP>
3.25

>  <TopoPSA>
182.83

>  <MMFF94 Energy>
143.07

$$$$
C[C@H]1[C@H](NC(=O)/C(=N/OC(C)(C)C(=O)O)c2csc(N)n2)C(=O)N1S(=O)(=O)O
Actelion Java MolfileCreator 2.0

  0  0  0  0  0  0              0 V3000
M  V30 BEGIN CTAB
M  V30 COUNTS 45 46 0 0 0
M  V30 BEGIN ATOM
M  V30 1 S -1.2286 -5.3324 0.6551 0
M  V30 2 O -1.6392 -5.7908 -0.6506 0
M  V30 3 O -1.4001 -6.1491 1.8327 0
M  V30 4 O 0.3427 -5.0033 0.5793 0
M  V30 5 N -1.9196 -3.8586 0.9222 0
M  V30 6 C -1.4146 -2.9401 1.8423 0
M  V30 7 C -2.2735 -2.8008 -0.0596 0 CFG=2
M  V30 8 O -0.6732 -3.1099 2.7831 0
M  V30 9 C -2.0668 -1.7362 1.0628 0 CFG=2
M  V30 10 C -3.6868 -2.9722 -0.5778 0
M  V30 11 N -1.1412 -0.6219 0.7434 0
M  V30 12 C -1.3715 0.2392 -0.3095 0
M  V30 13 O -2.3048 0.1467 -1.0911 0
M  V30 14 C -0.3076 1.3228 -0.4663 0
M  V30 15 N 0.9184 0.8812 -0.5586 0
M  V30 16 C -0.7252 2.7201 -0.4483 0
M  V30 17 O 1.8785 1.9048 -0.5723 0
M  V30 18 N -1.8062 3.1106 0.342 0
M  V30 19 C -0.1679 3.7515 -1.1827 0
M  V30 20 C 3.2054 1.3636 -0.581 0
M  V30 21 C -2.0353 4.3929 0.2111 0
M  V30 22 S -0.9854 5.2211 -0.8616 0
M  V30 23 C 3.5232 0.4908 0.6419 0
M  V30 24 C 3.4367 0.5778 -1.8774 0
M  V30 25 C 4.1546 2.5657 -0.5425 0
M  V30 26 N -3.0147 5.0302 0.858 0
M  V30 27 O 4.2449 -0.4954 0.6663 0
M  V30 28 O 2.967 0.9317 1.793 0
M  V30 29 H 0.7299 -5.2612 1.444 0
M  V30 30 H -1.5351 -2.7435 -0.8701 0
M  V30 31 H -2.9806 -1.3719 1.5463 0
M  V30 32 H -4.4093 -3.0857 0.2377 0
M  V30 33 H -3.7621 -3.8543 -1.2219 0
M  V30 34 H -3.9867 -2.1031 -1.1718 0
M  V30 35 H -0.294 -0.4704 1.2858 0
M  V30 36 H 0.6545 3.716 -1.8823 0
M  V30 37 H 3.1526 1.1735 -2.7522 0
M  V30 38 H 2.8295 -0.3343 -1.903 0
M  V30 39 H 4.484 0.2752 -1.9851 0
M  V30 40 H 3.9808 3.172 0.3545 0
M  V30 41 H 5.2049 2.2548 -0.5403 0
M  V30 42 H 3.9863 3.2257 -1.4013 0
M  V30 43 H -3.1864 6.0189 0.7378 0
M  V30 44 H -3.6326 4.5159 1.472 0
M  V30 45 H 3.2945 0.3012 2.4681 0
M  V30 END ATOM
M  V30 BEGIN BOND
M  V30 1 2 1 2
M  V30 2 2 1 3
M  V30 3 1 1 4
M  V30 4 1 1 5
M  V30 5 1 5 6
M  V30 6 1 5 7
M  V30 7 2 6 8
M  V30 8 1 6 9
M  V30 9 1 7 10
M  V30 10 1 9 11
M  V30 11 1 11 12
M  V30 12 2 12 13
M  V30 13 1 12 14
M  V30 14 2 14 15
M  V30 15 1 14 16
M  V30 16 1 15 17
M  V30 17 1 16 18
M  V30 18 2 16 19
M  V30 19 1 17 20
M  V30 20 2 18 21
M  V30 21 1 19 22
M  V30 22 1 20 23
M  V30 23 1 20 24
M  V30 24 1 20 25
M  V30 25 1 21 26
M  V30 26 2 23 27
M  V30 27 1 23 28
M  V30 28 1 7 9
M  V30 29 1 21 22
M  V30 30 1 4 29
M  V30 31 1 7 30
M  V30 32 1 9 31
M  V30 33 1 10 32
M  V30 34 1 10 33
M  V30 35 1 10 34
M  V30 36 1 11 35
M  V30 37 1 19 36
M  V30 38 1 24 37
M  V30 39 1 24 38
M  V30 40 1 24 39
M  V30 41 1 25 40
M  V30 42 1 25 41
M  V30 43 1 25 42
M  V30 44 1 26 43
M  V30 45 1 26 44
M  V30 46 1 28 45
M  V30 END BOND
M  V30 BEGIN COLLECTION
M  V30 MDLV30/STEABS ATOMS=(2 7 9)
M  V30 END COLLECTION
M  V30 END CTAB
M  END
>  <level_0>
2131

>  <index>
2131

>  <NO.>
2132

>  <Name>
aztreonam

>  <SMILES>
C[C@H]1[C@H](NC(=O)/C(=N/OC(C)(C)C(=O)O)c2csc(N)n2)C(=O)N1S(=O)(=O)O

>  <logBB>


>  <Class>
-1

>  <MW>
435.05

>  <nHBAcc>
10

>  <nHBDon>
4

>  <SLogP>
-1.17

>  <TopoPSA>
201.58

>  <MMFF94 Energy>
-106.26

$$$$
C[C@H]1c2ccccc2[C@@H](CCCN(C)C)c2cc(C(F)(F)F)ccc21
Actelion Java MolfileCreator 2.0

  0  0  0  0  0  0              0 V3000
M  V30 BEGIN CTAB
M  V30 COUNTS 49 51 0 0 0
M  V30 BEGIN ATOM
M  V30 1 F 2.323 3.6867 -2.8843 0
M  V30 2 C 3.1316 2.5897 -2.9009 0
M  V30 3 F 4.1207 2.8417 -1.9997 0
M  V30 4 F 3.7327 2.5939 -4.1243 0
M  V30 5 C 2.3989 1.3049 -2.6074 0
M  V30 6 C 1.2434 1.306 -1.8114 0
M  V30 7 C 2.8828 0.0838 -3.0926 0
M  V30 8 C 0.5625 0.1119 -1.5136 0
M  V30 9 C 2.2167 -1.1075 -2.8022 0
M  V30 10 C 1.0535 -1.1061 -2.0161 0
M  V30 11 C -0.6776 0.1486 -0.6239 0 CFG=1
M  V30 12 C 0.3418 -2.416 -1.7175 0 CFG=2
M  V30 13 C -1.6229 -1.0109 -0.9064 0
M  V30 14 C -0.2383 0.2272 0.8589 0
M  V30 15 C -1.1332 -2.2355 -1.3989 0
M  V30 16 C 1.0565 -3.1948 -0.6092 0
M  V30 17 C -3.0036 -0.8657 -0.6889 0
M  V30 18 C -1.3718 0.5827 1.8309 0
M  V30 19 C -2.0267 -3.2972 -1.6226 0
M  V30 20 C -3.8799 -1.9254 -0.9207 0
M  V30 21 C -0.8786 0.7965 3.2713 0
M  V30 22 C -3.3908 -3.143 -1.3812 0
M  V30 23 N 0.1068 1.8796 3.4233 0
M  V30 24 C 0.6897 1.8417 4.7672 0
M  V30 25 C -0.4806 3.1978 3.1776 0
M  V30 26 H 0.8696 2.2493 -1.4125 0
M  V30 27 H 3.7839 0.0552 -3.7032 0
M  V30 28 H 2.6099 -2.0429 -3.1956 0
M  V30 29 H -1.2171 1.0708 -0.8844 0
M  V30 30 H 0.389 -3.0106 -2.6414 0
M  V30 31 H 0.2143 -0.7195 1.1754 0
M  V30 32 H 0.5485 0.9861 0.9521 0
M  V30 33 H 1.0487 -2.6532 0.3418 0
M  V30 34 H 2.1038 -3.3832 -0.8701 0
M  V30 35 H 0.5799 -4.1663 -0.4373 0
M  V30 36 H -3.4062 0.0802 -0.3336 0
M  V30 37 H -1.9107 1.4677 1.4754 0
M  V30 38 H -2.0993 -0.2359 1.858 0
M  V30 39 H -1.6614 -4.2499 -1.9995 0
M  V30 40 H -4.9445 -1.799 -0.7429 0
M  V30 41 H -1.7446 0.9713 3.9233 0
M  V30 42 H -0.4269 -0.1489 3.5997 0
M  V30 43 H -4.072 -3.9697 -1.5631 0
M  V30 44 H 1.1878 0.8822 4.9449 0
M  V30 45 H -0.0639 1.9905 5.549 0
M  V30 46 H 1.4583 2.6151 4.8762 0
M  V30 47 H -1.3284 3.4031 3.841 0
M  V30 48 H -0.8175 3.2951 2.141 0
M  V30 49 H 0.2673 3.9853 3.3253 0
M  V30 END ATOM
M  V30 BEGIN BOND
M  V30 1 1 1 2
M  V30 2 1 2 3
M  V30 3 1 2 4
M  V30 4 1 2 5
M  V30 5 2 5 6
M  V30 6 1 5 7
M  V30 7 1 6 8
M  V30 8 2 7 9
M  V30 9 2 8 10
M  V30 10 1 8 11
M  V30 11 1 10 12
M  V30 12 1 11 13
M  V30 13 1 11 14
M  V30 14 1 12 15
M  V30 15 1 12 16
M  V30 16 1 13 17
M  V30 17 1 14 18
M  V30 18 1 15 19
M  V30 19 2 17 20
M  V30 20 1 18 21
M  V30 21 2 19 22
M  V30 22 1 21 23
M  V30 23 1 23 24
M  V30 24 1 23 25
M  V30 25 1 9 10
M  V30 26 2 13 15
M  V30 27 1 20 22
M  V30 28 1 6 26
M  V30 29 1 7 27
M  V30 30 1 9 28
M  V30 31 1 11 29
M  V30 32 1 12 30
M  V30 33 1 14 31
M  V30 34 1 14 32
M  V30 35 1 16 33
M  V30 36 1 16 34
M  V30 37 1 16 35
M  V30 38 1 17 36
M  V30 39 1 18 37
M  V30 40 1 18 38
M  V30 41 1 19 39
M  V30 42 1 20 40
M  V30 43 1 21 41
M  V30 44 1 21 42
M  V30 45 1 22 43
M  V30 46 1 24 44
M  V30 47 1 24 45
M  V30 48 1 24 46
M  V30 49 1 25 47
M  V30 50 1 25 48
M  V30 51 1 25 49
M  V30 END BOND
M  V30 BEGIN COLLECTION
M  V30 MDLV30/STEABS ATOMS=(2 11 12)
M  V30 END COLLECTION
M  V30 END CTAB
M  END
>  <level_0>
2133

>  <index>
2133

>  <NO.>
2134

>  <Name>
fluotracen

>  <SMILES>
C[C@H]1c2ccccc2[C@@H](CCCN(C)C)c2cc(C(F)(F)F)ccc21

>  <logBB>


>  <Class>
1

>  <MW>
347.19

>  <nHBAcc>
1

>  <nHBDon>
0

>  <SLogP>
5.64

>  <TopoPSA>
3.24

>  <MMFF94 Energy>
102.55

$$$$
C[C@]1(Cn2ccnn2)[C@H](C(=O)O)N2C(=O)C[C@H]2S1(=O)=O
Actelion Java MolfileCreator 2.0

  0  0  0  0  0  0              0 V3000
M  V30 BEGIN CTAB
M  V30 COUNTS 32 34 0 0 0
M  V30 BEGIN ATOM
M  V30 1 S 1.4903 -0.9105 -1.159 0
M  V30 2 O 2.5406 -1.1431 -0.191 0
M  V30 3 O 1.4996 -1.6835 -2.389 0
M  V30 4 C -0.152 -1.1528 -0.3651 0 CFG=2
M  V30 5 C 1.371 0.8263 -1.5889 0 CFG=1
M  V30 6 C -0.9295 0.1198 -0.756 0 CFG=1
M  V30 7 C -0.0081 -1.365 1.1622 0
M  V30 8 C -0.7799 -2.4571 -0.9091 0
M  V30 9 N 0.0536 1.1431 -1.0355 0
M  V30 10 C 1.9332 1.9402 -0.6952 0
M  V30 11 C -1.7593 -0.0262 -2.026 0
M  V30 12 N 0.2479 -0.2173 1.9978 0
M  V30 13 C 0.4621 2.1731 -0.2656 0
M  V30 14 O -1.3729 0.111 -3.1742 0
M  V30 15 O -3.0281 -0.4027 -1.7689 0
M  V30 16 N 1.4884 0.2603 2.1431 0
M  V30 17 C -0.6336 0.4458 2.7982 0
M  V30 18 O -0.1672 2.8704 0.4889 0
M  V30 19 N 1.4334 1.2704 2.9994 0
M  V30 20 C 0.1396 1.4012 3.4128 0
M  V30 21 H 1.4309 1.0083 -2.6661 0
M  V30 22 H -1.5919 0.4733 0.0411 0
M  V30 23 H -0.9442 -1.7925 1.5482 0
M  V30 24 H 0.7682 -2.1064 1.3892 0
M  V30 25 H -1.7809 -2.6163 -0.4927 0
M  V30 26 H -0.8702 -2.4642 -1.9998 0
M  V30 27 H -0.1652 -3.3246 -0.6404 0
M  V30 28 H 2.604 1.6322 0.1076 0
M  V30 29 H 2.3697 2.7854 -1.2345 0
M  V30 30 H -3.4536 -0.4491 -2.6539 0
M  V30 31 H -1.6852 0.2094 2.8588 0
M  V30 32 H -0.1564 2.1648 4.1174 0
M  V30 END ATOM
M  V30 BEGIN BOND
M  V30 1 2 1 2
M  V30 2 2 1 3
M  V30 3 1 1 4
M  V30 4 1 1 5
M  V30 5 1 4 6
M  V30 6 1 4 7
M  V30 7 1 4 8
M  V30 8 1 5 9
M  V30 9 1 5 10
M  V30 10 1 6 11
M  V30 11 1 7 12
M  V30 12 1 9 13
M  V30 13 2 11 14
M  V30 14 1 11 15
M  V30 15 1 12 16
M  V30 16 1 12 17
M  V30 17 2 13 18
M  V30 18 2 16 19
M  V30 19 2 17 20
M  V30 20 1 6 9
M  V30 21 1 10 13
M  V30 22 1 19 20
M  V30 23 1 5 21
M  V30 24 1 6 22
M  V30 25 1 7 23
M  V30 26 1 7 24
M  V30 27 1 8 25
M  V30 28 1 8 26
M  V30 29 1 8 27
M  V30 30 1 10 28
M  V30 31 1 10 29
M  V30 32 1 15 30
M  V30 33 1 17 31
M  V30 34 1 20 32
M  V30 END BOND
M  V30 BEGIN COLLECTION
M  V30 MDLV30/STEABS ATOMS=(3 4 5 6)
M  V30 END COLLECTION
M  V30 END CTAB
M  END
>  <level_0>
2134

>  <index>
2134

>  <NO.>
2135

>  <Name>
tazobactam

>  <SMILES>
C[C@]1(Cn2ccnn2)[C@H](C(=O)O)N2C(=O)C[C@H]2S1(=O)=O

>  <logBB>


>  <Class>
-1

>  <MW>
300.05

>  <nHBAcc>
6

>  <nHBDon>
1

>  <SLogP>
-1.52

>  <TopoPSA>
122.46

>  <MMFF94 Energy>
-46.222

$$$$
C[N+](C)(C)CCO
Actelion Java MolfileCreator 2.0

  0  0  0  0  0  0              0 V3000
M  V30 BEGIN CTAB
M  V30 COUNTS 21 20 0 0 0
M  V30 BEGIN ATOM
M  V30 1 O -1.291 0.4554 2.127 0
M  V30 2 C -1.0644 -0.8138 1.5262 0
M  V30 3 C 0.2864 -0.8408 0.7904 0
M  V30 4 N 0.3722 0.0707 -0.4616 0 CHG=1
M  V30 5 C -0.6094 -0.365 -1.5362 0
M  V30 6 C 1.7912 -0.0405 -1.0189 0
M  V30 7 C 0.1155 1.5333 -0.1018 0
M  V30 8 H -2.07 0.3701 2.7106 0
M  V30 9 H -1.9007 -1.0493 0.8634 0
M  V30 10 H -1.0446 -1.5613 2.3263 0
M  V30 11 H 0.5065 -1.8588 0.4501 0
M  V30 12 H 1.0833 -0.5065 1.4651 0
M  V30 13 H -0.4359 0.242 -2.4301 0
M  V30 14 H -0.4372 -1.4228 -1.7542 0
M  V30 15 H -1.6286 -0.2065 -1.1753 0
M  V30 16 H 1.9811 -1.0875 -1.2729 0
M  V30 17 H 1.8662 0.5863 -1.9126 0
M  V30 18 H 2.4925 0.303 -0.2526 0
M  V30 19 H 0.3991 2.1503 -0.9605 0
M  V30 20 H -0.9494 1.6734 0.0959 0
M  V30 21 H 0.7274 1.7924 0.7666 0
M  V30 END ATOM
M  V30 BEGIN BOND
M  V30 1 1 1 2
M  V30 2 1 2 3
M  V30 3 1 3 4
M  V30 4 1 4 5
M  V30 5 1 4 6
M  V30 6 1 4 7
M  V30 7 1 1 8
M  V30 8 1 2 9
M  V30 9 1 2 10
M  V30 10 1 3 11
M  V30 11 1 3 12
M  V30 12 1 5 13
M  V30 13 1 5 14
M  V30 14 1 5 15
M  V30 15 1 6 16
M  V30 16 1 6 17
M  V30 17 1 6 18
M  V30 18 1 7 19
M  V30 19 1 7 20
M  V30 20 1 7 21
M  V30 END BOND
M  V30 END CTAB
M  END
>  <level_0>
2151

>  <index>
2151

>  <NO.>
2152

>  <Name>
choline

>  <SMILES>
C[N+](C)(C)CCO

>  <logBB>


>  <Class>
1

>  <MW>
104.11

>  <nHBAcc>
1

>  <nHBDon>
1

>  <SLogP>
-0.32

>  <TopoPSA>
20.23

>  <MMFF94 Energy>
39.062

$$$$
C[N+](C)([O-])CC/C=C1/c2ccccc2C=Cc2c(Cl)cccc21
Actelion Java MolfileCreator 2.0

  0  0  0  0  0  0              0 V3000
M  V30 BEGIN CTAB
M  V30 COUNTS 43 45 0 0 0
M  V30 BEGIN ATOM
M  V30 1 Cl -3.0607 0.7242 -3.5446 0
M  V30 2 C -1.9548 1.3312 -2.3534 0
M  V30 3 C -0.8525 0.5799 -1.8912 0
M  V30 4 C -2.2004 2.6262 -1.8795 0
M  V30 5 C -0.0215 1.1646 -0.9086 0
M  V30 6 C -0.6112 -0.7939 -2.3935 0
M  V30 7 C -1.3534 3.2009 -0.9388 0
M  V30 8 C 1.1599 0.4427 -0.382 0
M  V30 9 C -0.2656 2.4762 -0.462 0
M  V30 10 C 0.5697 -1.3957 -2.6183 0
M  V30 11 C 2.2298 -0.0046 -1.3039 0
M  V30 12 C 1.2428 0.0396 0.9051 0
M  V30 13 C 1.9199 -0.8503 -2.3865 0
M  V30 14 C 3.5499 0.4364 -1.116 0
M  V30 15 C 0.2322 0.237 2.0068 0
M  V30 16 C 2.9536 -1.2616 -3.2423 0
M  V30 17 C 4.562 0.0286 -1.984 0
M  V30 18 C -0.5822 -1.0393 2.2189 0
M  V30 19 C 4.2644 -0.8211 -3.0452 0
M  V30 20 N -1.6633 -0.9271 3.2854 0 CHG=1
M  V30 21 O -1.1183 -0.5124 4.4726 0 CHG=-1
M  V30 22 C -2.2858 -2.2839 3.4869 0
M  V30 23 C -2.7388 0.0376 2.8624 0
M  V30 24 H -3.0477 3.1964 -2.2531 0
M  V30 25 H -1.5077 -1.3639 -2.6299 0
M  V30 26 H -1.5343 4.2119 -0.5827 0
M  V30 27 H 0.4015 2.9379 0.2642 0
M  V30 28 H 0.5525 -2.4051 -3.0262 0
M  V30 29 H 2.1119 -0.5426 1.2154 0
M  V30 30 H 3.792 1.1055 -0.2934 0
M  V30 31 H -0.4248 1.0824 1.7994 0
M  V30 32 H 0.7702 0.5011 2.9249 0
M  V30 33 H 2.7446 -1.9254 -4.0784 0
M  V30 34 H 5.5808 0.3752 -1.8318 0
M  V30 35 H 0.0744 -1.8534 2.5502 0
M  V30 36 H -1.0933 -1.3505 1.2998 0
M  V30 37 H 5.0519 -1.1421 -3.7221 0
M  V30 38 H -1.496 -2.9667 3.8113 0
M  V30 39 H -2.7243 -2.6017 2.5376 0
M  V30 40 H -3.0474 -2.1876 4.2657 0
M  V30 41 H -2.3114 1.0418 2.8433 0
M  V30 42 H -3.5345 -0.0074 3.6114 0
M  V30 43 H -3.1039 -0.2667 1.8786 0
M  V30 END ATOM
M  V30 BEGIN BOND
M  V30 1 1 1 2
M  V30 2 2 2 3
M  V30 3 1 2 4
M  V30 4 1 3 5
M  V30 5 1 3 6
M  V30 6 2 4 7
M  V30 7 1 5 8
M  V30 8 2 5 9
M  V30 9 2 6 10
M  V30 10 1 8 11
M  V30 11 2 8 12
M  V30 12 1 10 13
M  V30 13 1 11 14
M  V30 14 1 12 15
M  V30 15 1 13 16
M  V30 16 2 14 17
M  V30 17 1 15 18
M  V30 18 2 16 19
M  V30 19 1 18 20
M  V30 20 1 20 21
M  V30 21 1 20 22
M  V30 22 1 20 23
M  V30 23 1 7 9
M  V30 24 2 11 13
M  V30 25 1 17 19
M  V30 26 1 4 24
M  V30 27 1 6 25
M  V30 28 1 7 26
M  V30 29 1 9 27
M  V30 30 1 10 28
M  V30 31 1 12 29
M  V30 32 1 14 30
M  V30 33 1 15 31
M  V30 34 1 15 32
M  V30 35 1 16 33
M  V30 36 1 17 34
M  V30 37 1 18 35
M  V30 38 1 18 36
M  V30 39 1 19 37
M  V30 40 1 22 38
M  V30 41 1 22 39
M  V30 42 1 22 40
M  V30 43 1 23 41
M  V30 44 1 23 42
M  V30 45 1 23 43
M  V30 END BOND
M  V30 END CTAB
M  END
>  <level_0>
2152

>  <index>
2152

>  <NO.>
2153

>  <Name>
schembl2734225

>  <SMILES>
C[N+](C)([O-])CC/C=C1/c2ccccc2C=Cc2c(Cl)cccc21

>  <logBB>


>  <Class>
1

>  <MW>
325.12

>  <nHBAcc>
1

>  <nHBDon>
0

>  <SLogP>
5.22

>  <TopoPSA>
23.06

>  <MMFF94 Energy>
97.54

$$$$
C[S+](CC[C@H](N)C(=O)O)C[C@H]1O[C@@H](n2cnc3c(N)ncnc32)[C@H](O)[C@@H]1O
Actelion Java MolfileCreator 2.0

  0  0  0  0  0  0              0 V3000
M  V30 BEGIN CTAB
M  V30 COUNTS 50 52 0 0 0
M  V30 BEGIN ATOM
M  V30 1 S 2.0126 2.4961 1.0461 0 CHG=1
M  V30 2 C 1.1201 2.0667 -0.4971 0
M  V30 3 C 1.0908 1.3847 2.166 0
M  V30 4 C 1.0598 3.9999 1.3896 0
M  V30 5 C 1.5817 0.729 -1.0809 0 CFG=1
M  V30 6 C 1.5039 1.6084 3.6223 0
M  V30 7 O 0.8525 -0.3551 -0.4676 0
M  V30 8 C 1.2838 0.6229 -2.5757 0 CFG=1
M  V30 9 C 0.8347 0.6498 4.6179 0 CFG=2
M  V30 10 C 0.5863 -1.3631 -1.4799 0 CFG=2
M  V30 11 O 2.278 1.2137 -3.4063 0
M  V30 12 C 1.2583 -0.8833 -2.7707 0 CFG=2
M  V30 13 N 1.1618 -0.767 4.3631 0
M  V30 14 C -0.6832 0.8499 4.6126 0
M  V30 15 N -0.8521 -1.5307 -1.6009 0
M  V30 16 O 2.6101 -1.3692 -2.8526 0
M  V30 17 O -1.4996 0.2076 3.9689 0
M  V30 18 O -1.0808 1.8882 5.3753 0
M  V30 19 C -1.4708 -2.4407 -2.4153 0
M  V30 20 C -1.8346 -0.8509 -0.9298 0
M  V30 21 N -0.8929 -3.3315 -3.236 0
M  V30 22 C -2.8267 -2.2341 -2.2224 0
M  V30 23 N -3.0406 -1.2269 -1.3034 0
M  V30 24 C -1.8241 -4.0564 -3.8891 0
M  V30 25 C -3.7002 -3.0468 -2.9647 0
M  V30 26 N -3.1692 -3.9645 -3.8052 0
M  V30 27 N -5.0702 -2.9544 -2.8772 0
M  V30 28 H 0.0431 2.0647 -0.3006 0
M  V30 29 H 1.349 2.8795 -1.1944 0
M  V30 30 H 0.0167 1.5326 2.0226 0
M  V30 31 H 1.3445 0.364 1.8706 0
M  V30 32 H 1.3469 4.39 2.3686 0
M  V30 33 H 1.3027 4.748 0.6306 0
M  V30 34 H -0.0146 3.8021 1.3734 0
M  V30 35 H 2.6517 0.5735 -0.8926 0
M  V30 36 H 1.2659 2.638 3.9167 0
M  V30 37 H 2.5941 1.5115 3.7129 0
M  V30 38 H 0.3036 1.0501 -2.82 0
M  V30 39 H 1.1935 0.8758 5.6291 0
M  V30 40 H 0.9942 -2.3139 -1.1197 0
M  V30 41 H 2.3214 2.1656 -3.2036 0
M  V30 42 H 0.7579 -1.1781 -3.697 0
M  V30 43 H 0.5909 -1.1085 3.5863 0
M  V30 44 H 2.1341 -0.8538 4.072 0
M  V30 45 H 3.0744 -0.7315 -3.4339 0
M  V30 46 H -2.058 1.8748 5.2963 0
M  V30 47 H -1.6222 -0.0966 -0.1819 0
M  V30 48 H -1.4451 -4.8107 -4.5731 0
M  V30 49 H -5.478 -2.2913 -2.234 0
M  V30 50 H -5.6274 -3.5886 -3.426 0
M  V30 END ATOM
M  V30 BEGIN BOND
M  V30 1 1 1 2
M  V30 2 1 1 3
M  V30 3 1 1 4
M  V30 4 1 2 5
M  V30 5 1 3 6
M  V30 6 1 5 7
M  V30 7 1 5 8
M  V30 8 1 6 9
M  V30 9 1 7 10
M  V30 10 1 8 11
M  V30 11 1 8 12
M  V30 12 1 9 13
M  V30 13 1 9 14
M  V30 14 1 10 15
M  V30 15 1 12 16
M  V30 16 2 14 17
M  V30 17 1 14 18
M  V30 18 1 15 19
M  V30 19 1 15 20
M  V30 20 2 19 21
M  V30 21 1 19 22
M  V30 22 2 20 23
M  V30 23 1 21 24
M  V30 24 2 22 25
M  V30 25 2 24 26
M  V30 26 1 25 27
M  V30 27 1 10 12
M  V30 28 1 22 23
M  V30 29 1 25 26
M  V30 30 1 2 28
M  V30 31 1 2 29
M  V30 32 1 3 30
M  V30 33 1 3 31
M  V30 34 1 4 32
M  V30 35 1 4 33
M  V30 36 1 4 34
M  V30 37 1 5 35
M  V30 38 1 6 36
M  V30 39 1 6 37
M  V30 40 1 8 38
M  V30 41 1 9 39
M  V30 42 1 10 40
M  V30 43 1 11 41
M  V30 44 1 12 42
M  V30 45 1 13 43
M  V30 46 1 13 44
M  V30 47 1 16 45
M  V30 48 1 18 46
M  V30 49 1 20 47
M  V30 50 1 24 48
M  V30 51 1 27 49
M  V30 52 1 27 50
M  V30 END BOND
M  V30 BEGIN COLLECTION
M  V30 MDLV30/STEABS ATOMS=(5 5 8 9 10 12)
M  V30 END COLLECTION
M  V30 END CTAB
M  END
>  <level_0>
2159

>  <index>
2159

>  <NO.>
2160

>  <Name>
s-adenosyl-l-methionine

>  <SMILES>
C[S+](CC[C@H](N)C(=O)O)C[C@H]1O[C@@H](n2cnc3c(N)ncnc32)[C@H](O)[C@@H]1O

>  <logBB>


>  <Class>
1

>  <MW>
399.14

>  <nHBAcc>
9

>  <nHBDon>
5

>  <SLogP>
-1.92

>  <TopoPSA>
182.63

>  <MMFF94 Energy>
105.84

$$$$
Cc1c(C)c2c(c(C)c1O)CC[C@@](C)(CCC[C@H](C)CCC[C@H](C)CCCC(C)C)O2
Actelion Java MolfileCreator 2.0

  0  0  0  0  0  0              0 V3000
M  V30 BEGIN CTAB
M  V30 COUNTS 81 82 0 0 0
M  V30 BEGIN ATOM
M  V30 1 O 2.0333 2.7379 -3.4429 0
M  V30 2 C 3.2958 3.1519 -3.7901 0
M  V30 3 C 1.2817 1.9711 -4.3954 0 CFG=1
M  V30 4 C 3.9775 2.6682 -4.9201 0
M  V30 5 C 3.888 4.0986 -2.9263 0
M  V30 6 C 2.1771 0.9435 -5.0942 0
M  V30 7 C 0.1446 1.2686 -3.6042 0
M  V30 8 C 0.6148 2.9395 -5.3925 0
M  V30 9 C 5.2558 3.1804 -5.2292 0
M  V30 10 C 3.3346 1.6285 -5.8013 0
M  V30 11 C 5.1606 4.6272 -3.2404 0
M  V30 12 C 3.1315 4.5752 -1.7087 0
M  V30 13 C 0.6156 0.3505 -2.4653 0
M  V30 14 C 5.839 4.1206 -4.3632 0
M  V30 15 C 6.0215 2.6864 -6.4312 0
M  V30 16 C 5.7864 5.6933 -2.3775 0
M  V30 17 C -0.5771 -0.1954 -1.6702 0
M  V30 18 O 7.117 4.5251 -4.6546 0
M  V30 19 C -0.1731 -1.0114 -0.4217 0 CFG=1
M  V30 20 C -1.4431 -1.3407 0.3944 0
M  V30 21 C 0.5987 -2.2787 -0.8011 0
M  V30 22 C -1.1545 -1.9858 1.7553 0
M  V30 23 C -2.4424 -2.154 2.5704 0
M  V30 24 C -2.2075 -2.6688 4.0081 0 CFG=1
M  V30 25 C -3.5423 -2.6132 4.7856 0
M  V30 26 C -1.6126 -4.0803 4.0133 0
M  V30 27 C -3.3986 -2.9333 6.2773 0
M  V30 28 C -4.6658 -2.6304 7.0878 0
M  V30 29 C -5.935 -3.3894 6.6565 0
M  V30 30 C -5.7613 -4.9067 6.7298 0
M  V30 31 C -7.1153 -2.9611 7.5332 0
M  V30 32 H 2.6107 0.2592 -4.3546 0
M  V30 33 H 1.6076 0.3346 -5.8057 0
M  V30 34 H -0.4959 2.0418 -3.1581 0
M  V30 35 H -0.4845 0.6925 -4.2947 0
M  V30 36 H 0.0206 2.3986 -6.1365 0
M  V30 37 H -0.0444 3.641 -4.8674 0
M  V30 38 H 1.3441 3.5618 -5.9204 0
M  V30 39 H 2.9875 2.1058 -6.725 0
M  V30 40 H 4.0635 0.8582 -6.0787 0
M  V30 41 H 2.6337 5.5251 -1.9273 0
M  V30 42 H 2.3761 3.8555 -1.3781 0
M  V30 43 H 3.8054 4.705 -0.8555 0
M  V30 44 H 1.2802 0.9005 -1.7896 0
M  V30 45 H 1.1839 -0.4843 -2.8838 0
M  V30 46 H 5.3573 2.5353 -7.288 0
M  V30 47 H 6.5218 1.743 -6.1918 0
M  V30 48 H 6.7757 3.4063 -6.7644 0
M  V30 49 H 5.033 6.3477 -1.9284 0
M  V30 50 H 6.4295 6.3568 -2.965 0
M  V30 51 H 6.3797 5.2311 -1.5828 0
M  V30 52 H -1.2027 -0.8111 -2.329 0
M  V30 53 H -1.1973 0.6519 -1.3502 0
M  V30 54 H 7.5446 4.818 -3.8352 0
M  V30 55 H 0.4804 -0.3854 0.1996 0
M  V30 56 H -2.0983 -1.9999 -0.1893 0
M  V30 57 H -2.003 -0.4117 0.5635 0
M  V30 58 H 1.514 -2.0409 -1.3507 0
M  V30 59 H -0.0109 -2.9405 -1.4252 0
M  V30 60 H 0.91 -2.8389 0.0853 0
M  V30 61 H -0.4455 -1.3633 2.3136 0
M  V30 62 H -0.6897 -2.9638 1.6034 0
M  V30 63 H -3.1227 -2.8327 2.0402 0
M  V30 64 H -2.9484 -1.1813 2.624 0
M  V30 65 H -1.4951 -1.9946 4.5011 0
M  V30 66 H -4.2568 -3.3053 4.3239 0
M  V30 67 H -3.9675 -1.6061 4.6868 0
M  V30 68 H -0.6503 -4.1112 3.4942 0
M  V30 69 H -2.2854 -4.7942 3.5267 0
M  V30 70 H -1.4241 -4.4313 5.0321 0
M  V30 71 H -2.5802 -2.334 6.6953 0
M  V30 72 H -3.1182 -3.9818 6.4193 0
M  V30 73 H -4.4546 -2.85 8.1426 0
M  V30 74 H -4.8615 -1.5514 7.0344 0
M  V30 75 H -6.182 -3.1203 5.6227 0
M  V30 76 H -5.0079 -5.2564 6.0177 0
M  V30 77 H -5.4569 -5.2233 7.7331 0
M  V30 78 H -6.6992 -5.417 6.4851 0
M  V30 79 H -7.2794 -1.8805 7.4643 0
M  V30 80 H -6.9416 -3.2119 8.5853 0
M  V30 81 H -8.0376 -3.4584 7.2144 0
M  V30 END ATOM
M  V30 BEGIN BOND
M  V30 1 1 1 2
M  V30 2 1 1 3
M  V30 3 2 2 4
M  V30 4 1 2 5
M  V30 5 1 3 6
M  V30 6 1 3 7
M  V30 7 1 3 8
M  V30 8 1 4 9
M  V30 9 1 4 10
M  V30 10 2 5 11
M  V30 11 1 5 12
M  V30 12 1 7 13
M  V30 13 2 9 14
M  V30 14 1 9 15
M  V30 15 1 11 16
M  V30 16 1 13 17
M  V30 17 1 14 18
M  V30 18 1 17 19
M  V30 19 1 19 20
M  V30 20 1 19 21
M  V30 21 1 20 22
M  V30 22 1 22 23
M  V30 23 1 23 24
M  V30 24 1 24 25
M  V30 25 1 24 26
M  V30 26 1 25 27
M  V30 27 1 27 28
M  V30 28 1 28 29
M  V30 29 1 29 30
M  V30 30 1 29 31
M  V30 31 1 6 10
M  V30 32 1 11 14
M  V30 33 1 6 32
M  V30 34 1 6 33
M  V30 35 1 7 34
M  V30 36 1 7 35
M  V30 37 1 8 36
M  V30 38 1 8 37
M  V30 39 1 8 38
M  V30 40 1 10 39
M  V30 41 1 10 40
M  V30 42 1 12 41
M  V30 43 1 12 42
M  V30 44 1 12 43
M  V30 45 1 13 44
M  V30 46 1 13 45
M  V30 47 1 15 46
M  V30 48 1 15 47
M  V30 49 1 15 48
M  V30 50 1 16 49
M  V30 51 1 16 50
M  V30 52 1 16 51
M  V30 53 1 17 52
M  V30 54 1 17 53
M  V30 55 1 18 54
M  V30 56 1 19 55
M  V30 57 1 20 56
M  V30 58 1 20 57
M  V30 59 1 21 58
M  V30 60 1 21 59
M  V30 61 1 21 60
M  V30 62 1 22 61
M  V30 63 1 22 62
M  V30 64 1 23 63
M  V30 65 1 23 64
M  V30 66 1 24 65
M  V30 67 1 25 66
M  V30 68 1 25 67
M  V30 69 1 26 68
M  V30 70 1 26 69
M  V30 71 1 26 70
M  V30 72 1 27 71
M  V30 73 1 27 72
M  V30 74 1 28 73
M  V30 75 1 28 74
M  V30 76 1 29 75
M  V30 77 1 30 76
M  V30 78 1 30 77
M  V30 79 1 30 78
M  V30 80 1 31 79
M  V30 81 1 31 80
M  V30 82 1 31 81
M  V30 END BOND
M  V30 BEGIN COLLECTION
M  V30 MDLV30/STEABS ATOMS=(3 3 19 24)
M  V30 END COLLECTION
M  V30 END CTAB
M  END
>  <level_0>
2162

>  <index>
2162

>  <NO.>
2163

>  <Name>
vitamine(alpha-tocopherol)

>  <SMILES>
Cc1c(C)c2c(c(C)c1O)CC[C@@](C)(CCC[C@H](C)CCC[C@H](C)CCCC(C)C)O2

>  <logBB>


>  <Class>
1

>  <MW>
430.38

>  <nHBAcc>
2

>  <nHBDon>
1

>  <SLogP>
8.84

>  <TopoPSA>
29.46

>  <MMFF94 Energy>
50.116

$$$$
Cc1c2oc3c(C)ccc(C(=O)NC4C(=O)NC(C(C)C)C(=O)N5CCCC5C(=O)N(C)CC(=O)N(C)C(C(C)C)C(=O)OC4C)c3nc-2c(C(=O)NC2C(=O)NC(C(C)C)C(=O)N3CCCC3C(=O)N(C)CC(=O)N(C)C(C(C)C)C(=O)OC2C)c(N)c1=O
Actelion Java MolfileCreator 2.0

  0  0  0  0  0  0              0 V3000
M  V30 BEGIN CTAB
M  V30 COUNTS 176 182 0 0 0
M  V30 BEGIN ATOM
M  V30 1 O -5.5806 -0.8753 0.7161 0
M  V30 2 C -4.8183 -0.7918 -0.2368 0
M  V30 3 O -3.6619 -0.0683 -0.2405 0
M  V30 4 C -5.0062 -1.4974 -1.5977 0
M  V30 5 C -3.2848 0.5925 1.0025 0
M  V30 6 N -5.6648 -2.8183 -1.3684 0
M  V30 7 C -5.7387 -0.6052 -2.6375 0
M  V30 8 C -1.7289 0.6118 1.0607 0
M  V30 9 C -3.9658 1.9548 0.9935 0
M  V30 10 C -4.9884 -4.0246 -1.1925 0
M  V30 11 C -7.1224 -2.857 -1.2614 0
M  V30 12 C -5.1191 0.7911 -2.7672 0
M  V30 13 C -5.7287 -1.2661 -4.0238 0
M  V30 14 N -1.1159 1.2965 2.211 0
M  V30 15 C -1.3186 -0.8808 1.1718 0
M  V30 16 O -5.5824 -5.1052 -1.2339 0
M  V30 17 C -3.4722 -3.9806 -0.9396 0
M  V30 18 C -1.1127 2.6527 2.4258 0
M  V30 19 O -1.2144 -1.6263 0.2 0
M  V30 20 N -1.2866 -1.361 2.4694 0
M  V30 21 N -3.0183 -5.0804 -0.0749 0
M  V30 22 O -1.6291 3.4654 1.667 0
M  V30 23 C -0.4854 3.0549 3.7276 0
M  V30 24 C -1.0933 -2.7736 2.8066 0
M  V30 25 C -3.0444 -5.0677 1.3178 0
M  V30 26 C -2.5019 -6.2562 -0.757 0
M  V30 27 C -1.093 4.0158 4.4473 0
M  V30 28 C 0.7451 2.3883 4.2238 0
M  V30 29 C -2.1973 -3.0724 3.8432 0
M  V30 30 C 0.3059 -3.0225 3.4158 0
M  V30 31 O -2.5187 -5.9633 1.9855 0
M  V30 32 C -3.7854 -3.904 2.0266 0
M  V30 33 N -2.2116 4.7331 4.0796 0
M  V30 34 C -0.5404 4.3728 5.8021 0
M  V30 35 N 1.4359 1.6344 3.4248 0
M  V30 36 C 1.1326 2.6003 5.6419 0
M  V30 37 O -2.0869 -2.6603 5.0034 0
M  V30 38 N -3.3497 -3.6868 3.4141 0
M  V30 39 C 0.481 -4.4932 3.8131 0
M  V30 40 C 1.415 -2.6403 2.4363 0
M  V30 41 C -5.2775 -4.2326 2.162 0
M  V30 42 O -1.0022 5.3288 6.4239 0
M  V30 43 C 0.529 3.5319 6.3895 0
M  V30 44 C 2.6463 1.1017 3.9111 0
M  V30 45 O 2.1383 1.8019 6.1734 0
M  V30 46 C -4.3916 -4.0407 4.3592 0
M  V30 47 C -5.3855 -4.8513 3.551 0
M  V30 48 C 0.8721 3.8217 7.8201 0
M  V30 49 C 2.9417 1.1204 5.2828 0
M  V30 50 C 3.5863 0.5327 3.0361 0
M  V30 51 C 4.0903 0.4938 5.7952 0
M  V30 52 C 3.4108 0.6827 1.573 0
M  V30 53 C 4.7467 -0.079 3.5292 0
M  V30 54 C 4.9849 -0.1129 4.9042 0
M  V30 55 C 4.3885 0.5124 7.2677 0
M  V30 56 O 3.1382 1.777 1.0935 0
M  V30 57 N 3.6086 -0.4495 0.8161 0
M  V30 58 C 3.4356 -0.4308 -0.6411 0
M  V30 59 C 4.8286 -0.6308 -1.2626 0
M  V30 60 C 2.3913 -1.4804 -1.0981 0
M  V30 61 O 5.4374 -1.701 -1.1671 0
M  V30 62 N 5.4916 0.4175 -1.8315 0
M  V30 63 O 1.9502 -1.2312 -2.4512 0
M  V30 64 C 2.8432 -2.9374 -1.049 0
M  V30 65 C 5.1895 1.8542 -1.7398 0
M  V30 66 C 1.0061 -0.2572 -2.6065 0
M  V30 67 C 3.9522 2.2509 -2.5861 0
M  V30 68 C 6.415 2.7235 -2.127 0
M  V30 69 O 0.5359 0.4006 -1.6852 0
M  V30 70 C 0.5845 -0.1486 -4.0881 0
M  V30 71 O 3.5098 1.4982 -3.4597 0
M  V30 72 N 3.3562 3.4683 -2.3348 0
M  V30 73 C 7.5763 2.5144 -1.15 0
M  V30 74 C 6.8885 2.4973 -3.5672 0
M  V30 75 N -0.0193 1.1686 -4.4311 0
M  V30 76 C -0.2246 -1.3911 -4.5486 0
M  V30 77 C 2.2047 3.8972 -3.1281 0
M  V30 78 C 3.5755 4.3647 -1.2131 0
M  V30 79 C 0.5835 1.8995 -5.4557 0
M  V30 80 C -1.0702 1.7236 -3.5855 0
M  V30 81 C -1.5767 -1.5709 -3.8599 0
M  V30 82 C -0.4121 -1.4187 -6.0677 0
M  V30 83 C 2.6173 4.3195 -4.5592 0
M  V30 84 C 1.6354 5.1057 -2.3749 0
M  V30 85 C 2.201 4.9629 -0.9671 0
M  V30 86 O 1.2558 1.3552 -6.334 0
M  V30 87 C 0.4134 3.4323 -5.4357 0
M  V30 88 O 3.6989 4.887 -4.7486 0
M  V30 89 N 1.7063 4.1112 -5.5946 0
M  V30 90 C 2.1119 4.4217 -6.9567 0
M  V30 91 H -4.0026 -1.709 -1.9837 0
M  V30 92 H -3.6661 0.0169 1.8563 0
M  V30 93 H -6.7823 -0.4604 -2.3336 0
M  V30 94 H -1.2997 1.0275 0.1438 0
M  V30 95 H -5.0382 1.8532 0.7936 0
M  V30 96 H -3.5661 2.5878 0.1945 0
M  V30 97 H -3.8661 2.462 1.956 0
M  V30 98 H -7.4742 -2.0151 -0.6596 0
M  V30 99 H -7.5594 -2.8028 -2.2611 0
M  V30 100 H -7.4691 -3.7782 -0.7842 0
M  V30 101 H -5.2473 1.3703 -1.8481 0
M  V30 102 H -5.6025 1.3587 -3.57 0
M  V30 103 H -4.0509 0.732 -2.9944 0
M  V30 104 H -6.1972 -2.2537 -4.0111 0
M  V30 105 H -4.7066 -1.3877 -4.3963 0
M  V30 106 H -6.2783 -0.6542 -4.7473 0
M  V30 107 H -0.359 0.7961 2.675 0
M  V30 108 H -3.1862 -3.0429 -0.4714 0
M  V30 109 H -2.959 -4.042 -1.9053 0
M  V30 110 H -1.5278 -0.742 3.2372 0
M  V30 111 H -1.2089 -3.3818 1.9092 0
M  V30 112 H -2.2721 -7.0709 -0.0661 0
M  V30 113 H -3.2466 -6.6087 -1.4763 0
M  V30 114 H -1.5876 -5.9759 -1.2884 0
M  V30 115 H 0.4316 -2.408 4.3171 0
M  V30 116 H -3.633 -2.9675 1.4915 0
M  V30 117 H -2.5387 4.6869 3.1154 0
M  V30 118 H -2.4974 5.5016 4.6844 0
M  V30 119 H 1.4817 -4.6673 4.2229 0
M  V30 120 H -0.2405 -4.7909 4.5801 0
M  V30 121 H 0.3503 -5.1544 2.9497 0
M  V30 122 H 2.4029 -2.8344 2.8672 0
M  V30 123 H 1.3307 -3.2135 1.508 0
M  V30 124 H 1.3685 -1.577 2.1885 0
M  V30 125 H -5.8669 -3.3087 2.1287 0
M  V30 126 H -5.6612 -4.9116 1.3977 0
M  V30 127 H -4.8416 -3.1124 4.7296 0
M  V30 128 H -3.9763 -4.5927 5.2078 0
M  V30 129 H -6.3984 -4.8062 3.9602 0
M  V30 130 H -5.0766 -5.9027 3.5155 0
M  V30 131 H 1.2296 4.8513 7.9269 0
M  V30 132 H 1.6544 3.1623 8.2084 0
M  V30 133 H -0.0092 3.6918 8.4571 0
M  V30 134 H 5.4879 -0.4951 2.8507 0
M  V30 135 H 5.8943 -0.5849 5.273 0
M  V30 136 H 4.6423 1.5281 7.5873 0
M  V30 137 H 3.5233 0.1583 7.8377 0
M  V30 138 H 5.2309 -0.1423 7.5136 0
M  V30 139 H 3.921 -1.3129 1.2425 0
M  V30 140 H 3.0578 0.55 -0.9258 0
M  V30 141 H 1.5215 -1.4094 -0.4318 0
M  V30 142 H 6.3701 0.1407 -2.2488 0
M  V30 143 H 3.2966 -3.1957 -0.0884 0
M  V30 144 H 3.5419 -3.1722 -1.8582 0
M  V30 145 H 1.9802 -3.5954 -1.2049 0
M  V30 146 H 4.9501 2.031 -0.6888 0
M  V30 147 H 6.1316 3.7798 -2.0551 0
M  V30 148 H 1.5428 -0.1919 -4.6249 0
M  V30 149 H 7.9754 1.4965 -1.2027 0
M  V30 150 H 7.2556 2.7025 -0.1199 0
M  V30 151 H 8.3964 3.2052 -1.3737 0
M  V30 152 H 6.0832 2.6846 -4.2843 0
M  V30 153 H 7.7076 3.1829 -3.8105 0
M  V30 154 H 7.2558 1.4787 -3.7245 0
M  V30 155 H 0.37 -2.2776 -4.288 0
M  V30 156 H 1.5048 3.0648 -3.1309 0
M  V30 157 H 4.2815 5.137 -1.5364 0
M  V30 158 H 3.9741 3.8612 -0.3326 0
M  V30 159 H -0.6271 2.3709 -2.8246 0
M  V30 160 H -1.7536 2.3195 -4.1978 0
M  V30 161 H -1.6414 0.9397 -3.0909 0
M  V30 162 H -1.9936 -2.557 -4.0938 0
M  V30 163 H -2.3039 -0.8286 -4.2003 0
M  V30 164 H -1.4872 -1.5062 -2.7716 0
M  V30 165 H -0.898 -2.3496 -6.3797 0
M  V30 166 H 0.5531 -1.3632 -6.581 0
M  V30 167 H -1.0347 -0.5867 -6.4127 0
M  V30 168 H 1.9734 6.0513 -2.8162 0
M  V30 169 H 0.541 5.1146 -2.3792 0
M  V30 170 H 2.2427 5.9123 -0.4266 0
M  V30 171 H 1.5831 4.2635 -0.3906 0
M  V30 172 H -0.2511 3.7145 -6.2595 0
M  V30 173 H -0.0414 3.792 -4.5132 0
M  V30 174 H 2.2267 3.4911 -7.5187 0
M  V30 175 H 1.3364 5.0357 -7.4241 0
M  V30 176 H 3.0573 4.9685 -6.9939 0
M  V30 END ATOM
M  V30 BEGIN BOND
M  V30 1 2 1 2
M  V30 2 1 2 3
M  V30 3 1 2 4
M  V30 4 1 3 5
M  V30 5 1 4 6
M  V30 6 1 4 7
M  V30 7 1 5 8
M  V30 8 1 5 9
M  V30 9 1 6 10
M  V30 10 1 6 11
M  V30 11 1 7 12
M  V30 12 1 7 13
M  V30 13 1 8 14
M  V30 14 1 8 15
M  V30 15 2 10 16
M  V30 16 1 10 17
M  V30 17 1 14 18
M  V30 18 2 15 19
M  V30 19 1 15 20
M  V30 20 1 17 21
M  V30 21 2 18 22
M  V30 22 1 18 23
M  V30 23 1 20 24
M  V30 24 1 21 25
M  V30 25 1 21 26
M  V30 26 2 23 27
M  V30 27 1 23 28
M  V30 28 1 24 29
M  V30 29 1 24 30
M  V30 30 2 25 31
M  V30 31 1 25 32
M  V30 32 1 27 33
M  V30 33 1 27 34
M  V30 34 2 28 35
M  V30 35 1 28 36
M  V30 36 2 29 37
M  V30 37 1 29 38
M  V30 38 1 30 39
M  V30 39 1 30 40
M  V30 40 1 32 41
M  V30 41 2 34 42
M  V30 42 1 34 43
M  V30 43 1 35 44
M  V30 44 1 36 45
M  V30 45 1 38 46
M  V30 46 1 41 47
M  V30 47 1 43 48
M  V30 48 2 44 49
M  V30 49 1 44 50
M  V30 50 1 49 51
M  V30 51 1 50 52
M  V30 52 2 50 53
M  V30 53 2 51 54
M  V30 54 1 51 55
M  V30 55 2 52 56
M  V30 56 1 52 57
M  V30 57 1 57 58
M  V30 58 1 58 59
M  V30 59 1 58 60
M  V30 60 2 59 61
M  V30 61 1 59 62
M  V30 62 1 60 63
M  V30 63 1 60 64
M  V30 64 1 62 65
M  V30 65 1 63 66
M  V30 66 1 65 67
M  V30 67 1 65 68
M  V30 68 2 66 69
M  V30 69 1 66 70
M  V30 70 2 67 71
M  V30 71 1 67 72
M  V30 72 1 68 73
M  V30 73 1 68 74
M  V30 74 1 70 75
M  V30 75 1 70 76
M  V30 76 1 72 77
M  V30 77 1 72 78
M  V30 78 1 75 79
M  V30 79 1 75 80
M  V30 80 1 76 81
M  V30 81 1 76 82
M  V30 82 1 77 83
M  V30 83 1 77 84
M  V30 84 1 78 85
M  V30 85 2 79 86
M  V30 86 1 79 87
M  V30 87 2 83 88
M  V30 88 1 83 89
M  V30 89 1 89 90
M  V30 90 1 32 38
M  V30 91 2 36 43
M  V30 92 1 45 49
M  V30 93 1 46 47
M  V30 94 1 53 54
M  V30 95 1 84 85
M  V30 96 1 87 89
M  V30 97 1 4 91
M  V30 98 1 5 92
M  V30 99 1 7 93
M  V30 100 1 8 94
M  V30 101 1 9 95
M  V30 102 1 9 96
M  V30 103 1 9 97
M  V30 104 1 11 98
M  V30 105 1 11 99
M  V30 106 1 11 100
M  V30 107 1 12 101
M  V30 108 1 12 102
M  V30 109 1 12 103
M  V30 110 1 13 104
M  V30 111 1 13 105
M  V30 112 1 13 106
M  V30 113 1 14 107
M  V30 114 1 17 108
M  V30 115 1 17 109
M  V30 116 1 20 110
M  V30 117 1 24 111
M  V30 118 1 26 112
M  V30 119 1 26 113
M  V30 120 1 26 114
M  V30 121 1 30 115
M  V30 122 1 32 116
M  V30 123 1 33 117
M  V30 124 1 33 118
M  V30 125 1 39 119
M  V30 126 1 39 120
M  V30 127 1 39 121
M  V30 128 1 40 122
M  V30 129 1 40 123
M  V30 130 1 40 124
M  V30 131 1 41 125
M  V30 132 1 41 126
M  V30 133 1 46 127
M  V30 134 1 46 128
M  V30 135 1 47 129
M  V30 136 1 47 130
M  V30 137 1 48 131
M  V30 138 1 48 132
M  V30 139 1 48 133
M  V30 140 1 53 134
M  V30 141 1 54 135
M  V30 142 1 55 136
M  V30 143 1 55 137
M  V30 144 1 55 138
M  V30 145 1 57 139
M  V30 146 1 58 140
M  V30 147 1 60 141
M  V30 148 1 62 142
M  V30 149 1 64 143
M  V30 150 1 64 144
M  V30 151 1 64 145
M  V30 152 1 65 146
M  V30 153 1 68 147
M  V30 154 1 70 148
M  V30 155 1 73 149
M  V30 156 1 73 150
M  V30 157 1 73 151
M  V30 158 1 74 152
M  V30 159 1 74 153
M  V30 160 1 74 154
M  V30 161 1 76 155
M  V30 162 1 77 156
M  V30 163 1 78 157
M  V30 164 1 78 158
M  V30 165 1 80 159
M  V30 166 1 80 160
M  V30 167 1 80 161
M  V30 168 1 81 162
M  V30 169 1 81 163
M  V30 170 1 81 164
M  V30 171 1 82 165
M  V30 172 1 82 166
M  V30 173 1 82 167
M  V30 174 1 84 168
M  V30 175 1 84 169
M  V30 176 1 85 170
M  V30 177 1 85 171
M  V30 178 1 87 172
M  V30 179 1 87 173
M  V30 180 1 90 174
M  V30 181 1 90 175
M  V30 182 1 90 176
M  V30 END BOND
M  V30 END CTAB
M  END
>  <level_0>
2168

>  <index>
2168

>  <NO.>
2169

>  <Name>
dactinomycin

>  <SMILES>
Cc1c2oc3c(C)ccc(C(=O)NC4C(=O)NC(C(C)C)C(=O)N5CCCC5C(=O)N(C)CC(=O)N(C)C(C(C)C)C(=O)OC4C)c3nc-2c(C(=O)NC2C(=O)NC(C(C)C)C(=O)N3CCCC3C(=O)N(C)CC(=O)N(C)C(C(C)C)C(=O)OC2C)c(N)c1=O

>  <logBB>


>  <Class>
-1

>  <MW>
1254.63

>  <nHBAcc>
18

>  <nHBDon>
5

>  <SLogP>
0.73

>  <TopoPSA>
359.98

>  <MMFF94 Energy>
310.7

$$$$
Cc1cc(=O)c(C(=O)N[C@@H](C(=O)NC2C(=O)N3C(C(=O)O)=C(CSc4nnnn4C)CS[C@H]23)c2ccc(O)cc2)c[nH]1
Actelion Java MolfileCreator 2.0

  0  0  0  0  0  0              0 V3000
M  V30 BEGIN CTAB
M  V30 COUNTS 66 70 0 0 0
M  V30 BEGIN ATOM
M  V30 1 S -1.4726 -0.8997 0.7361 0
M  V30 2 C -2.0633 -0.574 -0.9427 0 CFG=1
M  V30 3 C -3.1156 -1.433 1.3216 0
M  V30 4 N -3.0638 0.4662 -0.8571 0
M  V30 5 C -1.2623 0.3929 -1.8661 0
M  V30 6 C -4.223 -0.4477 0.9888 0
M  V30 7 C -4.1322 0.4478 -0.0222 0
M  V30 8 C -2.5639 1.2679 -1.816 0
M  V30 9 N -0.0384 1.0472 -1.3279 0
M  V30 10 C -5.3988 -0.5025 1.9426 0
M  V30 11 C -5.1819 1.4788 -0.2189 0
M  V30 12 O -2.9664 2.2791 -2.3381 0
M  V30 13 C 1.1844 0.4097 -1.3574 0
M  V30 14 S -6.5078 -1.857 1.4491 0
M  V30 15 O -6.3325 1.2726 -0.5585 0
M  V30 16 O -4.7175 2.7017 0.0846 0
M  V30 17 O 1.313 -0.738 -1.7889 0
M  V30 18 C 2.3655 1.2274 -0.7865 0 CFG=2
M  V30 19 C -7.7456 -1.6755 2.6363 0
M  V30 20 N 3.6006 0.6905 -1.3295 0
M  V30 21 C 2.4091 1.2095 0.7314 0
M  V30 22 N -7.6525 -1.0605 3.7923 0
M  V30 23 N -9.0071 -2.1765 2.5092 0
M  V30 24 C 4.6697 1.4966 -1.6249 0
M  V30 25 C 2.1886 0.0321 1.4665 0
M  V30 26 C 2.7271 2.387 1.4287 0
M  V30 27 N -8.8869 -1.1921 4.3855 0
M  V30 28 N -9.72 -1.8739 3.6091 0
M  V30 29 C -9.601 -2.9099 1.4277 0
M  V30 30 O 4.6737 2.7112 -1.469 0
M  V30 31 C 5.8454 0.7675 -2.1319 0
M  V30 32 C 2.2438 0.0407 2.8627 0
M  V30 33 C 2.7867 2.3942 2.8232 0
M  V30 34 C 6.4204 1.0045 -3.4822 0
M  V30 35 C 6.474 -0.1155 -1.3386 0
M  V30 36 C 2.5393 1.2244 3.5292 0
M  V30 37 O 5.8959 1.7426 -4.3097 0
M  V30 38 C 7.6656 0.2635 -3.8379 0
M  V30 39 N 7.5998 -0.7989 -1.7218 0
M  V30 40 O 2.6035 1.2771 4.8898 0
M  V30 41 C 8.1922 -0.6013 -2.9525 0
M  V30 42 C 9.4397 -1.3787 -3.2576 0
M  V30 43 H -2.4241 -1.4657 -1.4705 0
M  V30 44 H -3.0238 -1.5503 2.4063 0
M  V30 45 H -3.3481 -2.416 0.8985 0
M  V30 46 H -1.0817 -0.0107 -2.8703 0
M  V30 47 H -0.0992 1.9708 -0.9087 0
M  V30 48 H -5.0435 -0.6651 2.9666 0
M  V30 49 H -5.962 0.4355 1.9604 0
M  V30 50 H -5.4472 3.3117 -0.1481 0
M  V30 51 H 2.2405 2.2585 -1.1423 0
M  V30 52 H 3.6149 -0.2996 -1.546 0
M  V30 53 H 1.9655 -0.905 0.9592 0
M  V30 54 H 2.9465 3.3066 0.887 0
M  V30 55 H -10.6438 -3.1358 1.6666 0
M  V30 56 H -9.5582 -2.2983 0.5232 0
M  V30 57 H -9.0475 -3.842 1.2905 0
M  V30 58 H 2.056 -0.8798 3.4059 0
M  V30 59 H 3.0321 3.3094 3.3549 0
M  V30 60 H 6.1409 -0.3286 -0.3262 0
M  V30 61 H 8.0844 0.4588 -4.8161 0
M  V30 62 H 8.0392 -1.4361 -1.0625 0
M  V30 63 H 2.3945 0.3977 5.2443 0
M  V30 64 H 10.2212 -1.1451 -2.527 0
M  V30 65 H 9.2366 -2.4539 -3.216 0
M  V30 66 H 9.8334 -1.1505 -4.2537 0
M  V30 END ATOM
M  V30 BEGIN BOND
M  V30 1 1 1 2
M  V30 2 1 1 3
M  V30 3 1 2 4
M  V30 4 1 2 5
M  V30 5 1 3 6
M  V30 6 1 4 7
M  V30 7 1 4 8
M  V30 8 1 5 9
M  V30 9 1 6 10
M  V30 10 1 7 11
M  V30 11 2 8 12
M  V30 12 1 9 13
M  V30 13 1 10 14
M  V30 14 2 11 15
M  V30 15 1 11 16
M  V30 16 2 13 17
M  V30 17 1 13 18
M  V30 18 1 14 19
M  V30 19 1 18 20
M  V30 20 1 18 21
M  V30 21 2 19 22
M  V30 22 1 19 23
M  V30 23 1 20 24
M  V30 24 2 21 25
M  V30 25 1 21 26
M  V30 26 1 22 27
M  V30 27 1 23 28
M  V30 28 1 23 29
M  V30 29 2 24 30
M  V30 30 1 24 31
M  V30 31 1 25 32
M  V30 32 2 26 33
M  V30 33 1 31 34
M  V30 34 2 31 35
M  V30 35 2 32 36
M  V30 36 2 34 37
M  V30 37 1 34 38
M  V30 38 1 35 39
M  V30 39 1 36 40
M  V30 40 2 38 41
M  V30 41 1 41 42
M  V30 42 1 5 8
M  V30 43 2 6 7
M  V30 44 2 27 28
M  V30 45 1 33 36
M  V30 46 1 39 41
M  V30 47 1 2 43
M  V30 48 1 3 44
M  V30 49 1 3 45
M  V30 50 1 5 46
M  V30 51 1 9 47
M  V30 52 1 10 48
M  V30 53 1 10 49
M  V30 54 1 16 50
M  V30 55 1 18 51
M  V30 56 1 20 52
M  V30 57 1 25 53
M  V30 58 1 26 54
M  V30 59 1 29 55
M  V30 60 1 29 56
M  V30 61 1 29 57
M  V30 62 1 32 58
M  V30 63 1 33 59
M  V30 64 1 35 60
M  V30 65 1 38 61
M  V30 66 1 39 62
M  V30 67 1 40 63
M  V30 68 1 42 64
M  V30 69 1 42 65
M  V30 70 1 42 66
M  V30 END BOND
M  V30 BEGIN COLLECTION
M  V30 MDLV30/STEABS ATOMS=(2 2 18)
M  V30 END COLLECTION
M  V30 END CTAB
M  END
>  <level_0>
2170

>  <index>
2170

>  <NO.>
2171

>  <Name>
cefpiramide

>  <SMILES>
Cc1cc(=O)c(C(=O)N[C@@H](C(=O)NC2C(=O)N3C(C(=O)O)=C(CSc4nnnn4C)CS[C@H]23)c2ccc(O)cc2)c[nH]1

>  <logBB>


>  <Class>
-1

>  <MW>
612.12

>  <nHBAcc>
11

>  <nHBDon>
5

>  <SLogP>
-0.09

>  <TopoPSA>
212.5

>  <MMFF94 Energy>
34.61

$$$$
Cc1cc(C(C)(C)SC(C)(C)CNc2[nH]ccc2[N+](=O)[O-])nc(C)c1C
Actelion Java MolfileCreator 2.0

  0  0  0  0  0  0              0 V3000
M  V30 BEGIN CTAB
M  V30 COUNTS 54 55 0 0 0
M  V30 BEGIN ATOM
M  V30 1 S -0.2385 -0.7954 1.6711 0
M  V30 2 C -1.8942 -1.1698 0.9019 0
M  V30 3 C 1.09 -1.0555 0.3759 0
M  V30 4 C -2.1444 -0.4421 -0.4193 0
M  V30 5 C -2.1045 -2.696 0.808 0
M  V30 6 C -2.9316 -0.6776 1.9472 0
M  V30 7 C 2.4535 -1.1022 1.1519 0
M  V30 8 C 0.9625 -2.3789 -0.3836 0
M  V30 9 C 1.138 0.1124 -0.6227 0
M  V30 10 N -2.3283 -1.1983 -1.5277 0
M  V30 11 C -2.1948 0.9503 -0.4869 0
M  V30 12 N 2.6969 0.1072 1.9312 0
M  V30 13 C -2.5795 -0.5878 -2.7138 0
M  V30 14 C -2.4447 1.5883 -1.7086 0
M  V30 15 C 3.8694 0.453 2.5138 0
M  V30 16 C -2.6741 0.8038 -2.8528 0
M  V30 17 C -2.7565 -1.5177 -3.8802 0
M  V30 18 C -2.4755 3.0917 -1.7487 0
M  V30 19 N 4.9966 -0.3242 2.3853 0
M  V30 20 C 4.2151 1.5416 3.3049 0
M  V30 21 C -2.9346 1.4374 -4.1921 0
M  V30 22 C 6.0449 0.238 3.0672 0
M  V30 23 N 3.3487 2.6232 3.7056 0 CHG=1
M  V30 24 C 5.5915 1.3994 3.6498 0
M  V30 25 O 3.8541 3.5037 4.417 0
M  V30 26 O 2.1719 2.6043 3.3165 0 CHG=-1
M  V30 27 H -1.4927 -3.1781 0.0449 0
M  V30 28 H -3.1456 -2.9259 0.5457 0
M  V30 29 H -1.8998 -3.1942 1.7633 0
M  V30 30 H -2.8249 0.3862 2.1897 0
M  V30 31 H -3.955 -0.8171 1.5759 0
M  V30 32 H -2.8538 -1.2343 2.8898 0
M  V30 33 H 3.2656 -1.2362 0.4252 0
M  V30 34 H 2.4766 -1.9717 1.8222 0
M  V30 35 H 1.8583 -2.5653 -0.9888 0
M  V30 36 H 0.8548 -3.2301 0.2972 0
M  V30 37 H 0.1258 -2.371 -1.086 0
M  V30 38 H 2.0756 0.0944 -1.1919 0
M  V30 39 H 0.3401 0.0544 -1.3653 0
M  V30 40 H 1.0795 1.0881 -0.1281 0
M  V30 41 H -2.019 1.5458 0.4051 0
M  V30 42 H 1.8517 0.6552 2.1354 0
M  V30 43 H -2.0672 -1.2564 -4.689 0
M  V30 44 H -3.7869 -1.4772 -4.2463 0
M  V30 45 H -2.5459 -2.5519 -3.5872 0
M  V30 46 H -1.8275 3.4683 -2.5466 0
M  V30 47 H -2.1142 3.5265 -0.8104 0
M  V30 48 H -3.4992 3.4442 -1.9092 0
M  V30 49 H 5.0427 -1.1898 1.8685 0
M  V30 50 H -1.9871 1.6165 -4.7095 0
M  V30 51 H -3.5685 0.8072 -4.823 0
M  V30 52 H -3.4682 2.3876 -4.0925 0
M  V30 53 H 7.017 -0.237 3.0791 0
M  V30 54 H 6.1784 2.0763 4.2587 0
M  V30 END ATOM
M  V30 BEGIN BOND
M  V30 1 1 1 2
M  V30 2 1 1 3
M  V30 3 1 2 4
M  V30 4 1 2 5
M  V30 5 1 2 6
M  V30 6 1 3 7
M  V30 7 1 3 8
M  V30 8 1 3 9
M  V30 9 2 4 10
M  V30 10 1 4 11
M  V30 11 1 7 12
M  V30 12 1 10 13
M  V30 13 2 11 14
M  V30 14 1 12 15
M  V30 15 2 13 16
M  V30 16 1 13 17
M  V30 17 1 14 18
M  V30 18 1 15 19
M  V30 19 2 15 20
M  V30 20 1 16 21
M  V30 21 1 19 22
M  V30 22 1 20 23
M  V30 23 1 20 24
M  V30 24 2 23 25
M  V30 25 1 23 26
M  V30 26 1 14 16
M  V30 27 2 22 24
M  V30 28 1 5 27
M  V30 29 1 5 28
M  V30 30 1 5 29
M  V30 31 1 6 30
M  V30 32 1 6 31
M  V30 33 1 6 32
M  V30 34 1 7 33
M  V30 35 1 7 34
M  V30 36 1 8 35
M  V30 37 1 8 36
M  V30 38 1 8 37
M  V30 39 1 9 38
M  V30 40 1 9 39
M  V30 41 1 9 40
M  V30 42 1 11 41
M  V30 43 1 12 42
M  V30 44 1 17 43
M  V30 45 1 17 44
M  V30 46 1 17 45
M  V30 47 1 18 46
M  V30 48 1 18 47
M  V30 49 1 18 48
M  V30 50 1 19 49
M  V30 51 1 21 50
M  V30 52 1 21 51
M  V30 53 1 21 52
M  V30 54 1 22 53
M  V30 55 1 24 54
M  V30 END BOND
M  V30 END CTAB
M  END
>  <level_0>
2174

>  <index>
2174

>  <NO.>
2175

>  <Name>
omeprazole

>  <SMILES>
Cc1cc(C(C)(C)SC(C)(C)CNc2[nH]ccc2[N+](=O)[O-])nc(C)c1C

>  <logBB>


>  <Class>
1

>  <MW>
376.19

>  <nHBAcc>
5

>  <nHBDon>
2

>  <SLogP>
5.1

>  <TopoPSA>
83.85

>  <MMFF94 Energy>
147.46

$$$$
Cc1ccsc1C(=CCCN1CCC[C@@H](C(=O)O)C1)c1sccc1C
Actelion Java MolfileCreator 2.0

  0  0  0  0  0  0              0 V3000
M  V30 BEGIN CTAB
M  V30 COUNTS 50 52 0 0 0
M  V30 BEGIN ATOM
M  V30 1 S -4.0559 -1.1344 -3.3249 0
M  V30 2 C -3.2058 -1.2616 -1.8271 0
M  V30 3 C -5.4052 -1.9807 -2.7259 0
M  V30 4 C -3.9593 -1.9665 -0.8869 0
M  V30 5 C -1.8948 -0.6734 -1.7091 0
M  V30 6 C -5.2298 -2.3682 -1.4199 0
M  V30 7 C -3.5273 -2.285 0.5092 0
M  V30 8 C -0.7895 -1.0599 -2.5404 0
M  V30 9 C -1.7135 0.246 -0.735 0
M  V30 10 S -0.3755 -0.0976 -3.9123 0
M  V30 11 C 0.0447 -2.1691 -2.4322 0
M  V30 12 C -0.4419 0.9644 -0.35 0
M  V30 13 C 0.9091 -1.1306 -4.3414 0
M  V30 14 C 1.0255 -2.1939 -3.4784 0
M  V30 15 C -0.053 -3.2102 -1.3656 0
M  V30 16 C -0.0378 0.6164 1.0949 0
M  V30 17 N 1.2582 1.1921 1.505 0
M  V30 18 C 1.1963 2.6603 1.6386 0
M  V30 19 C 1.7102 0.5699 2.7585 0
M  V30 20 C 2.5423 3.2833 2.0416 0 CFG=2
M  V30 21 C 3.0932 1.0784 3.158 0
M  V30 22 C 3.4739 3.3228 0.8455 0
M  V30 23 C 3.1096 2.5975 3.2893 0
M  V30 24 O 3.1757 3.6956 -0.2794 0
M  V30 25 O 4.7483 2.981 1.1091 0
M  V30 26 H -6.2629 -2.1574 -3.3599 0
M  V30 27 H -5.9784 -2.9229 -0.8666 0
M  V30 28 H -4.1129 -3.1135 0.9213 0
M  V30 29 H -3.6689 -1.4148 1.1579 0
M  V30 30 H -2.474 -2.5789 0.5412 0
M  V30 31 H -2.574 0.5386 -0.1332 0
M  V30 32 H -0.6316 2.0385 -0.4509 0
M  V30 33 H 0.3894 0.7256 -1.02 0
M  V30 34 H 1.5164 -0.9117 -5.2084 0
M  V30 35 H 1.7817 -2.9615 -3.5908 0
M  V30 36 H 0.756 -3.9427 -1.4511 0
M  V30 37 H -1.0032 -3.7482 -1.4422 0
M  V30 38 H 0.0137 -2.7527 -0.3733 0
M  V30 39 H -0.8304 0.9198 1.7925 0
M  V30 40 H 0.0299 -0.4783 1.1564 0
M  V30 41 H 0.8706 3.1125 0.6959 0
M  V30 42 H 0.4436 2.9313 2.3918 0
M  V30 43 H 0.9948 0.7614 3.5692 0
M  V30 44 H 1.7765 -0.5177 2.6332 0
M  V30 45 H 2.377 4.3384 2.2992 0
M  V30 46 H 3.8325 0.7581 2.4141 0
M  V30 47 H 3.389 0.626 4.1115 0
M  V30 48 H 4.1256 2.9422 3.5117 0
M  V30 49 H 2.4936 2.879 4.1536 0
M  V30 50 H 5.1911 3.0646 0.2388 0
M  V30 END ATOM
M  V30 BEGIN BOND
M  V30 1 1 1 2
M  V30 2 1 1 3
M  V30 3 2 2 4
M  V30 4 1 2 5
M  V30 5 2 3 6
M  V30 6 1 4 7
M  V30 7 1 5 8
M  V30 8 2 5 9
M  V30 9 1 8 10
M  V30 10 2 8 11
M  V30 11 1 9 12
M  V30 12 1 10 13
M  V30 13 1 11 14
M  V30 14 1 11 15
M  V30 15 1 12 16
M  V30 16 1 16 17
M  V30 17 1 17 18
M  V30 18 1 17 19
M  V30 19 1 18 20
M  V30 20 1 19 21
M  V30 21 1 20 22
M  V30 22 1 20 23
M  V30 23 2 22 24
M  V30 24 1 22 25
M  V30 25 1 4 6
M  V30 26 2 13 14
M  V30 27 1 21 23
M  V30 28 1 3 26
M  V30 29 1 6 27
M  V30 30 1 7 28
M  V30 31 1 7 29
M  V30 32 1 7 30
M  V30 33 1 9 31
M  V30 34 1 12 32
M  V30 35 1 12 33
M  V30 36 1 13 34
M  V30 37 1 14 35
M  V30 38 1 15 36
M  V30 39 1 15 37
M  V30 40 1 15 38
M  V30 41 1 16 39
M  V30 42 1 16 40
M  V30 43 1 18 41
M  V30 44 1 18 42
M  V30 45 1 19 43
M  V30 46 1 19 44
M  V30 47 1 20 45
M  V30 48 1 21 46
M  V30 49 1 21 47
M  V30 50 1 23 48
M  V30 51 1 23 49
M  V30 52 1 25 50
M  V30 END BOND
M  V30 BEGIN COLLECTION
M  V30 MDLV30/STEABS ATOMS=(1 20)
M  V30 END COLLECTION
M  V30 END CTAB
M  END
>  <level_0>
2207

>  <index>
2207

>  <NO.>
2208

>  <Name>
tigabine

>  <SMILES>
Cc1ccsc1C(=CCCN1CCC[C@@H](C(=O)O)C1)c1sccc1C

>  <logBB>


>  <Class>
1

>  <MW>
375.13

>  <nHBAcc>
4

>  <nHBDon>
1

>  <SLogP>
5.04

>  <TopoPSA>
40.54

>  <MMFF94 Energy>
28.194

$$$$
Cc1nnc(SCC2=C(C(=O)O)N3C(=O)[C@@H](NC(=O)Cn4cnnn4)[C@H]3SC2)s1
Actelion Java MolfileCreator 2.0

  0  0  0  0  0  0              0 V3000
M  V30 BEGIN CTAB
M  V30 COUNTS 43 46 0 0 0
M  V30 BEGIN ATOM
M  V30 1 S 0.7575 0.0841 -1.9367 0
M  V30 2 C 1.6425 1.5282 -1.2943 0 CFG=1
M  V30 3 C -0.8534 0.6425 -1.2993 0
M  V30 4 N 1.4871 1.5326 0.1406 0
M  V30 5 C 3.1787 1.4099 -1.0432 0 CFG=1
M  V30 6 C -0.8264 1.0642 0.1605 0
M  V30 7 C 0.3031 1.4508 0.801 0
M  V30 8 C 2.7941 1.5412 0.4664 0
M  V30 9 N 3.8563 0.1371 -1.4237 0
M  V30 10 C -2.1918 1.04 0.8197 0
M  V30 11 C 0.3016 1.774 2.2564 0
M  V30 12 O 3.3857 1.5419 1.5197 0
M  V30 13 C 4.2074 -0.1146 -2.7312 0
M  V30 14 S -2.6135 -0.6503 1.3301 0
M  V30 15 O -0.2285 1.1397 3.1489 0
M  V30 16 O 0.9269 2.9432 2.4887 0
M  V30 17 O 4.031 0.7072 -3.6283 0
M  V30 18 C 4.8515 -1.452 -2.989 0
M  V30 19 C -4.163 -0.3646 2.0839 0
M  V30 20 N 3.9208 -2.5199 -2.745 0
M  V30 21 S -4.9483 -1.5267 3.0679 0
M  V30 22 N -4.8342 0.7564 1.9295 0
M  V30 23 N 3.884 -3.1401 -1.555 0
M  V30 24 C 2.9921 -3.0521 -3.5772 0
M  V30 25 C -6.221 -0.3881 3.2595 0
M  V30 26 N -6.0325 0.7451 2.6161 0
M  V30 27 N 2.9333 -4.0566 -1.68 0
M  V30 28 N 2.3714 -4.0152 -2.9353 0
M  V30 29 C -7.4089 -0.7088 4.0893 0
M  V30 30 H 1.3534 2.4789 -1.7582 0
M  V30 31 H -1.543 -0.1941 -1.4468 0
M  V30 32 H -1.213 1.476 -1.9127 0
M  V30 33 H 3.7507 2.278 -1.3942 0
M  V30 34 H 3.9656 -0.5985 -0.7263 0
M  V30 35 H -2.2391 1.7115 1.6828 0
M  V30 36 H -2.94 1.4069 0.1068 0
M  V30 37 H 0.9315 3.0197 3.4653 0
M  V30 38 H 5.7235 -1.5813 -2.3399 0
M  V30 39 H 5.1787 -1.5131 -4.0316 0
M  V30 40 H 2.8089 -2.7222 -4.5889 0
M  V30 41 H -7.1179 -0.9116 5.1248 0
M  V30 42 H -8.1101 0.1318 4.0955 0
M  V30 43 H -7.9356 -1.5832 3.6943 0
M  V30 END ATOM
M  V30 BEGIN BOND
M  V30 1 1 1 2
M  V30 2 1 1 3
M  V30 3 1 2 4
M  V30 4 1 2 5
M  V30 5 1 3 6
M  V30 6 1 4 7
M  V30 7 1 4 8
M  V30 8 1 5 9
M  V30 9 1 6 10
M  V30 10 1 7 11
M  V30 11 2 8 12
M  V30 12 1 9 13
M  V30 13 1 10 14
M  V30 14 2 11 15
M  V30 15 1 11 16
M  V30 16 2 13 17
M  V30 17 1 13 18
M  V30 18 1 14 19
M  V30 19 1 18 20
M  V30 20 1 19 21
M  V30 21 2 19 22
M  V30 22 1 20 23
M  V30 23 1 20 24
M  V30 24 1 21 25
M  V30 25 1 22 26
M  V30 26 2 23 27
M  V30 27 2 24 28
M  V30 28 1 25 29
M  V30 29 1 5 8
M  V30 30 2 6 7
M  V30 31 2 25 26
M  V30 32 1 27 28
M  V30 33 1 2 30
M  V30 34 1 3 31
M  V30 35 1 3 32
M  V30 36 1 5 33
M  V30 37 1 9 34
M  V30 38 1 10 35
M  V30 39 1 10 36
M  V30 40 1 16 37
M  V30 41 1 18 38
M  V30 42 1 18 39
M  V30 43 1 24 40
M  V30 44 1 29 41
M  V30 45 1 29 42
M  V30 46 1 29 43
M  V30 END BOND
M  V30 BEGIN COLLECTION
M  V30 MDLV30/STEABS ATOMS=(2 2 5)
M  V30 END COLLECTION
M  V30 END CTAB
M  END
>  <level_0>
2228

>  <index>
2228

>  <NO.>
2229

>  <Name>
cefazolin

>  <SMILES>
Cc1nnc(SCC2=C(C(=O)O)N3C(=O)[C@@H](NC(=O)Cn4cnnn4)[C@H]3SC2)s1

>  <logBB>


>  <Class>
-1

>  <MW>
454.03

>  <nHBAcc>
11

>  <nHBDon>
2

>  <SLogP>
-0.64

>  <TopoPSA>
156.09

>  <MMFF94 Energy>
-22.212

$$$$
Cc1nnc(SCC2=C(C(=O)OCc3oc(=O)oc3C)N3C(=O)C(NC(=O)C(OC(=O)C(C)N)c4ccccc4)C3SC2)s1
Actelion Java MolfileCreator 2.0

  0  0  0  0  0  0              0 V3000
M  V30 BEGIN CTAB
M  V30 COUNTS 71 75 0 0 0
M  V30 BEGIN ATOM
M  V30 1 S 2.5597 0.495 -3.1384 0
M  V30 2 C 1.2909 0.6439 -1.8655 0
M  V30 3 C 3.9293 0.8031 -1.9764 0
M  V30 4 N 1.5292 -0.377 -0.8788 0
M  V30 5 C -0.0716 -0.0572 -2.1541 0
M  V30 6 C 3.8429 0.0237 -0.6718 0
M  V30 7 C 2.7015 -0.548 -0.2167 0
M  V30 8 C 0.2953 -0.9213 -0.881 0
M  V30 9 N -1.2759 0.8136 -2.0114 0
M  V30 10 C 5.1746 -0.0725 0.0495 0
M  V30 11 C 2.6805 -1.3841 1.0245 0
M  V30 12 O -0.2188 -1.7571 -0.1795 0
M  V30 13 C -2.5423 0.2583 -2.0124 0
M  V30 14 S 5.3715 1.3948 1.1087 0
M  V30 15 O 3.4065 -2.3431 1.2256 0
M  V30 16 O 1.7728 -0.8527 1.8804 0
M  V30 17 O -2.7305 -0.9404 -2.2137 0
M  V30 18 C -3.6951 1.2493 -1.7231 0
M  V30 19 C 6.9729 1.1053 1.746 0
M  V30 20 C 1.5406 -1.593 3.0847 0
M  V30 21 O -4.7997 0.5664 -1.1238 0
M  V30 22 C -4.1896 1.9047 -3.0002 0
M  V30 23 S 7.6129 1.9695 3.0804 0
M  V30 24 N 7.7945 0.2178 1.2316 0
M  V30 25 C 0.3203 -2.4274 2.9105 0
M  V30 26 C -4.561 0.174 0.1638 0
M  V30 27 C -4.2129 3.3037 -3.116 0
M  V30 28 C -4.6458 1.1309 -4.0798 0
M  V30 29 C 9.046 1.0397 2.8934 0
M  V30 30 N 9.002 0.1775 1.8996 0
M  V30 31 O 0.464 -3.6658 2.3117 0
M  V30 32 C -0.9344 -2.1936 3.2337 0
M  V30 33 O -3.6049 0.5554 0.8284 0
M  V30 34 C -5.6791 -0.7572 0.6623 0
M  V30 35 C -4.6657 3.9108 -4.2889 0
M  V30 36 C -5.0967 1.7409 -5.251 0
M  V30 37 C 10.2039 1.2347 3.8008 0
M  V30 38 C -0.8458 -4.1166 2.288 0
M  V30 39 O -1.7546 -3.2435 2.8684 0
M  V30 40 C -1.5724 -1.0102 3.8594 0
M  V30 41 N -6.182 -1.6263 -0.4251 0
M  V30 42 C -5.1859 -1.6324 1.8075 0
M  V30 43 C -5.1044 3.1298 -5.3559 0
M  V30 44 O -1.1692 -5.2107 1.8411 0
M  V30 45 H 1.2013 1.6445 -1.4248 0
M  V30 46 H 3.9722 1.8765 -1.7632 0
M  V30 47 H 4.8438 0.5337 -2.5146 0
M  V30 48 H -0.1156 -0.651 -3.0749 0
M  V30 49 H -1.1894 1.8142 -1.8838 0
M  V30 50 H 5.262 -0.9697 0.665 0
M  V30 51 H 5.9906 -0.1216 -0.68 0
M  V30 52 H -3.3301 2.0326 -1.0451 0
M  V30 53 H 1.4008 -0.8612 3.887 0
M  V30 54 H 2.401 -2.2056 3.3774 0
M  V30 55 H -3.8885 3.9361 -2.2925 0
M  V30 56 H -4.6547 0.0432 -4.0142 0
M  V30 57 H -6.5004 -0.1219 1.0111 0
M  V30 58 H -4.6831 4.9949 -4.3697 0
M  V30 59 H -5.4457 1.1303 -6.0801 0
M  V30 60 H 9.9248 1.0276 4.8387 0
M  V30 61 H 11.0206 0.5578 3.5304 0
M  V30 62 H 10.5813 2.2601 3.7362 0
M  V30 63 H -2.3398 -0.5991 3.1969 0
M  V30 64 H -2.0479 -1.2912 4.8041 0
M  V30 65 H -0.8515 -0.2145 4.0677 0
M  V30 66 H -5.4216 -2.2377 -0.7345 0
M  V30 67 H -6.384 -1.0356 -1.2351 0
M  V30 68 H -4.8695 -1.0169 2.6566 0
M  V30 69 H -5.9756 -2.304 2.1614 0
M  V30 70 H -4.3262 -2.2417 1.5063 0
M  V30 71 H -5.4595 3.6031 -6.2678 0
M  V30 END ATOM
M  V30 BEGIN BOND
M  V30 1 1 1 2
M  V30 2 1 1 3
M  V30 3 1 2 4
M  V30 4 1 2 5
M  V30 5 1 3 6
M  V30 6 1 4 7
M  V30 7 1 4 8
M  V30 8 1 5 9
M  V30 9 1 6 10
M  V30 10 1 7 11
M  V30 11 2 8 12
M  V30 12 1 9 13
M  V30 13 1 10 14
M  V30 14 2 11 15
M  V30 15 1 11 16
M  V30 16 2 13 17
M  V30 17 1 13 18
M  V30 18 1 14 19
M  V30 19 1 16 20
M  V30 20 1 18 21
M  V30 21 1 18 22
M  V30 22 1 19 23
M  V30 23 2 19 24
M  V30 24 1 20 25
M  V30 25 1 21 26
M  V30 26 2 22 27
M  V30 27 1 22 28
M  V30 28 1 23 29
M  V30 29 1 24 30
M  V30 30 1 25 31
M  V30 31 2 25 32
M  V30 32 2 26 33
M  V30 33 1 26 34
M  V30 34 1 27 35
M  V30 35 2 28 36
M  V30 36 1 29 37
M  V30 37 1 31 38
M  V30 38 1 32 39
M  V30 39 1 32 40
M  V30 40 1 34 41
M  V30 41 1 34 42
M  V30 42 2 35 43
M  V30 43 2 38 44
M  V30 44 1 5 8
M  V30 45 2 6 7
M  V30 46 2 29 30
M  V30 47 1 36 43
M  V30 48 1 38 39
M  V30 49 1 2 45
M  V30 50 1 3 46
M  V30 51 1 3 47
M  V30 52 1 5 48
M  V30 53 1 9 49
M  V30 54 1 10 50
M  V30 55 1 10 51
M  V30 56 1 18 52
M  V30 57 1 20 53
M  V30 58 1 20 54
M  V30 59 1 27 55
M  V30 60 1 28 56
M  V30 61 1 34 57
M  V30 62 1 35 58
M  V30 63 1 36 59
M  V30 64 1 37 60
M  V30 65 1 37 61
M  V30 66 1 37 62
M  V30 67 1 40 63
M  V30 68 1 40 64
M  V30 69 1 40 65
M  V30 70 1 41 66
M  V30 71 1 41 67
M  V30 72 1 42 68
M  V30 73 1 42 69
M  V30 74 1 42 70
M  V30 75 1 43 71
M  V30 END BOND
M  V30 END CTAB
M  END
>  <level_0>
2230

>  <index>
2230

>  <NO.>
2231

>  <Name>
cefcanel-daloxate

>  <SMILES>
Cc1nnc(SCC2=C(C(=O)OCc3oc(=O)oc3C)N3C(=O)C(NC(=O)C(OC(=O)C(C)N)c4ccccc4)C3SC2)s1

>  <logBB>


>  <Class>
-1

>  <MW>
661.1

>  <nHBAcc>
15

>  <nHBDon>
2

>  <SLogP>
1.82

>  <TopoPSA>
197.16

>  <MMFF94 Energy>
101.33

$$$$
Clc1ccc(COC(Cn2ccnc2)c2ccc(Cl)cc2Cl)cc1
Actelion Java MolfileCreator 2.0

  0  0  0  0  0  0              0 V3000
M  V30 BEGIN CTAB
M  V30 COUNTS 39 41 0 0 0
M  V30 BEGIN ATOM
M  V30 1 Cl 2.1408 0.4114 -0.3291 0
M  V30 2 C 1.5723 -0.8528 -1.3563 0
M  V30 3 C 0.2091 -1.1632 -1.5219 0
M  V30 4 C 2.5597 -1.5807 -2.0329 0
M  V30 5 C -0.1213 -2.2232 -2.3957 0
M  V30 6 C -0.9541 -0.4248 -0.8657 0 CFG=1
M  V30 7 C 2.2032 -2.6214 -2.8825 0
M  V30 8 C 0.8657 -2.9469 -3.0676 0
M  V30 9 O -0.7279 0.0471 0.4643 0
M  V30 10 C -1.503 0.7288 -1.7312 0
M  V30 11 Cl 3.4208 -3.5101 -3.7096 0
M  V30 12 C -0.663 -0.9905 1.4432 0
M  V30 13 N -0.5833 1.8128 -2.0 0
M  V30 14 C -0.6089 -0.386 2.8262 0
M  V30 15 C -0.3208 2.8628 -1.1667 0
M  V30 16 C 0.0924 2.0311 -3.1684 0
M  V30 17 C 0.1151 0.7897 3.0784 0
M  V30 18 C -1.2405 -1.0321 3.9003 0
M  V30 19 N 0.4873 3.7315 -1.7319 0
M  V30 20 C 0.7582 3.2189 -2.9737 0
M  V30 21 C 0.186 1.3217 4.3683 0
M  V30 22 C -1.1699 -0.5007 5.191 0
M  V30 23 C -0.4586 0.675 5.4188 0
M  V30 24 Cl -0.3724 1.3269 7.0087 0
M  V30 25 H 3.6095 -1.3308 -1.8964 0
M  V30 26 H -1.1623 -2.4973 -2.5644 0
M  V30 27 H -1.7874 -1.1385 -0.7905 0
M  V30 28 H 0.5839 -3.7592 -3.7334 0
M  V30 29 H -2.3699 1.1812 -1.2329 0
M  V30 30 H -1.8462 0.3483 -2.7012 0
M  V30 31 H 0.2283 -1.6075 1.2894 0
M  V30 32 H -1.5551 -1.6218 1.3567 0
M  V30 33 H -0.7362 2.9415 -0.1699 0
M  V30 34 H 0.0523 1.3542 -4.0096 0
M  V30 35 H 0.6275 1.3029 2.2663 0
M  V30 36 H -1.7941 -1.9549 3.741 0
M  V30 37 H 1.4125 3.7358 -3.6633 0
M  V30 38 H 0.7462 2.2365 4.5419 0
M  V30 39 H -1.6682 -1.0087 6.0122 0
M  V30 END ATOM
M  V30 BEGIN BOND
M  V30 1 1 1 2
M  V30 2 2 2 3
M  V30 3 1 2 4
M  V30 4 1 3 5
M  V30 5 1 3 6
M  V30 6 2 4 7
M  V30 7 2 5 8
M  V30 8 1 6 9
M  V30 9 1 6 10
M  V30 10 1 7 11
M  V30 11 1 9 12
M  V30 12 1 10 13
M  V30 13 1 12 14
M  V30 14 1 13 15
M  V30 15 1 13 16
M  V30 16 2 14 17
M  V30 17 1 14 18
M  V30 18 2 15 19
M  V30 19 2 16 20
M  V30 20 1 17 21
M  V30 21 2 18 22
M  V30 22 2 21 23
M  V30 23 1 23 24
M  V30 24 1 7 8
M  V30 25 1 19 20
M  V30 26 1 22 23
M  V30 27 1 4 25
M  V30 28 1 5 26
M  V30 29 1 6 27
M  V30 30 1 8 28
M  V30 31 1 10 29
M  V30 32 1 10 30
M  V30 33 1 12 31
M  V30 34 1 12 32
M  V30 35 1 15 33
M  V30 36 1 16 34
M  V30 37 1 17 35
M  V30 38 1 18 36
M  V30 39 1 20 37
M  V30 40 1 21 38
M  V30 41 1 22 39
M  V30 END BOND
M  V30 BEGIN COLLECTION
M  V30 MDLV30/STERAC1 ATOMS=(1 6)
M  V30 END COLLECTION
M  V30 END CTAB
M  END
>  <level_0>
2237

>  <index>
2237

>  <NO.>
2238

>  <Name>
econazole

>  <SMILES>
Clc1ccc(COC(Cn2ccnc2)c2ccc(Cl)cc2Cl)cc1

>  <logBB>


>  <Class>
-1

>  <MW>
380.02

>  <nHBAcc>
2

>  <nHBDon>
0

>  <SLogP>
5.8

>  <TopoPSA>
27.05

>  <MMFF94 Energy>
51.42

$$$$
Clc1ccc2c(c1)/C(=C/C1CN3CCC1CC3)c1ccccc1S2
Actelion Java MolfileCreator 2.0

  0  0  0  0  0  0              0 V3000
M  V30 BEGIN CTAB
M  V30 COUNTS 44 48 0 0 0
M  V30 BEGIN ATOM
M  V30 1 Cl 0.5789 4.5558 -3.8922 0
M  V30 2 C 1.4456 3.3152 -3.0735 0
M  V30 3 C 0.8537 2.6514 -1.9999 0
M  V30 4 C 2.7305 2.9805 -3.4912 0
M  V30 5 C 1.5479 1.6297 -1.331 0
M  V30 6 C 3.4392 1.9841 -2.8174 0
M  V30 7 C 2.8638 1.317 -1.7266 0
M  V30 8 C 0.9367 0.8654 -0.2078 0
M  V30 9 S 3.8602 0.0937 -0.8747 0
M  V30 10 C 1.7712 0.4928 0.9621 0
M  V30 11 C -0.3098 0.374 -0.4071 0
M  V30 12 C 3.0994 0.0802 0.7486 0
M  V30 13 C 1.2963 0.6009 2.2786 0
M  V30 14 C -1.1052 -0.6024 0.4376 0 CFG=2
M  V30 15 C 3.8888 -0.3159 1.8372 0
M  V30 16 C 2.0947 0.2197 3.3585 0
M  V30 17 C -1.5521 -1.8579 -0.3608 0
M  V30 18 C -2.3709 0.0562 1.0454 0
M  V30 19 C 3.3846 -0.2533 3.1367 0
M  V30 20 C -2.1637 -2.8386 0.6588 0
M  V30 21 C -2.68 -1.4976 -1.3456 0
M  V30 22 N -3.5788 -0.7871 0.8738 0
M  V30 23 C -3.3066 -2.1377 1.4132 0
M  V30 24 C -3.8658 -0.8992 -0.5725 0
M  V30 25 H -0.1476 2.9331 -1.6839 0
M  V30 26 H 3.1904 3.4958 -4.3303 0
M  V30 27 H 4.4497 1.7426 -3.1405 0
M  V30 28 H -0.8258 0.6535 -1.3251 0
M  V30 29 H 0.2985 0.9857 2.4745 0
M  V30 30 H -0.4871 -0.9743 1.2612 0
M  V30 31 H 4.9112 -0.6529 1.6824 0
M  V30 32 H 1.7092 0.2953 4.3723 0
M  V30 33 H -0.7097 -2.323 -0.8844 0
M  V30 34 H -2.5593 1.0494 0.6165 0
M  V30 35 H -2.2087 0.2328 2.1168 0
M  V30 36 H 4.0076 -0.5523 3.976 0
M  V30 37 H -1.3993 -3.1774 1.3681 0
M  V30 38 H -2.5437 -3.7289 0.1435 0
M  V30 39 H -3.0071 -2.3982 -1.8799 0
M  V30 40 H -2.3296 -0.7931 -2.1068 0
M  V30 41 H -3.0629 -2.066 2.4808 0
M  V30 42 H -4.2167 -2.748 1.3599 0
M  V30 43 H -4.762 -1.5137 -0.7252 0
M  V30 44 H -4.1157 0.0889 -0.9788 0
M  V30 END ATOM
M  V30 BEGIN BOND
M  V30 1 1 1 2
M  V30 2 2 2 3
M  V30 3 1 2 4
M  V30 4 1 3 5
M  V30 5 2 4 6
M  V30 6 2 5 7
M  V30 7 1 5 8
M  V30 8 1 7 9
M  V30 9 1 8 10
M  V30 10 2 8 11
M  V30 11 1 9 12
M  V30 12 1 10 13
M  V30 13 1 11 14
M  V30 14 1 12 15
M  V30 15 2 13 16
M  V30 16 1 14 17
M  V30 17 1 14 18
M  V30 18 2 15 19
M  V30 19 1 17 20
M  V30 20 1 17 21
M  V30 21 1 18 22
M  V30 22 1 20 23
M  V30 23 1 21 24
M  V30 24 1 6 7
M  V30 25 2 10 12
M  V30 26 1 16 19
M  V30 27 1 22 23
M  V30 28 1 22 24
M  V30 29 1 3 25
M  V30 30 1 4 26
M  V30 31 1 6 27
M  V30 32 1 11 28
M  V30 33 1 13 29
M  V30 34 1 14 30
M  V30 35 1 15 31
M  V30 36 1 16 32
M  V30 37 1 17 33
M  V30 38 1 18 34
M  V30 39 1 18 35
M  V30 40 1 19 36
M  V30 41 1 20 37
M  V30 42 1 20 38
M  V30 43 1 21 39
M  V30 44 1 21 40
M  V30 45 1 23 41
M  V30 46 1 23 42
M  V30 47 1 24 43
M  V30 48 1 24 44
M  V30 END BOND
M  V30 BEGIN COLLECTION
M  V30 MDLV30/STERAC1 ATOMS=(1 14)
M  V30 END COLLECTION
M  V30 END CTAB
M  END
>  <level_0>
2241

>  <index>
2241

>  <NO.>
2242

>  <Name>
nuclotixene

>  <SMILES>
Clc1ccc2c(c1)/C(=C/C1CN3CCC1CC3)c1ccccc1S2

>  <logBB>


>  <Class>
1

>  <MW>
353.1

>  <nHBAcc>
2

>  <nHBDon>
0

>  <SLogP>
5.58

>  <TopoPSA>
3.24

>  <MMFF94 Energy>
90.584

$$$$
Clc1ccccc1C(c1ccccc1)(c1ccccc1)n1ccnc1
Actelion Java MolfileCreator 2.0

  0  0  0  0  0  0              0 V3000
M  V30 BEGIN CTAB
M  V30 COUNTS 42 45 0 0 0
M  V30 BEGIN ATOM
M  V30 1 Cl 2.9275 -1.3816 -1.1377 0
M  V30 2 C 2.2489 0.1669 -1.5094 0
M  V30 3 C 1.0897 0.6979 -0.8907 0
M  V30 4 C 2.9591 0.8994 -2.4753 0
M  V30 5 C 0.7602 2.034 -1.2369 0
M  V30 6 C 0.2689 -0.063 0.2279 0
M  V30 7 C 2.5668 2.1854 -2.8279 0
M  V30 8 C 1.4735 2.7577 -2.198 0
M  V30 9 N 1.183 -0.0248 1.4196 0
M  V30 10 C -0.1815 -1.5213 -0.1654 0
M  V30 11 C -1.1164 0.6366 0.5772 0
M  V30 12 C 1.871 -1.056 2.0099 0
M  V30 13 C 1.6181 1.1245 2.061 0
M  V30 14 C -0.2866 -1.9359 -1.5101 0
M  V30 15 C -0.6697 -2.4164 0.8143 0
M  V30 16 C -2.0532 0.8915 -0.454 0
M  V30 17 C -1.5327 0.9116 1.8961 0
M  V30 18 N 2.6012 -0.653 3.0264 0
M  V30 19 C 2.4624 0.7036 3.0574 0
M  V30 20 C -0.7576 -3.2087 -1.8476 0
M  V30 21 C -1.1414 -3.6876 0.4763 0
M  V30 22 C -3.3023 1.4575 -0.1868 0
M  V30 23 C -2.7834 1.4798 2.1609 0
M  V30 24 C -1.1742 -4.0874 -0.8541 0
M  V30 25 C -3.663 1.76 1.1206 0
M  V30 26 H 3.8407 0.4705 -2.9478 0
M  V30 27 H -0.0542 2.5627 -0.7448 0
M  V30 28 H 3.1291 2.7453 -3.5705 0
M  V30 29 H 1.1781 3.7766 -2.4388 0
M  V30 30 H 1.8235 -2.0822 1.6693 0
M  V30 31 H 1.2857 2.1111 1.7694 0
M  V30 32 H -0.0109 -1.2747 -2.3283 0
M  V30 33 H -0.7041 -2.1281 1.8644 0
M  V30 34 H -1.8174 0.6437 -1.4878 0
M  V30 35 H -0.9077 0.6745 2.7543 0
M  V30 36 H 2.9849 1.3082 3.7872 0
M  V30 37 H -0.8071 -3.5085 -2.8914 0
M  V30 38 H -1.4948 -4.3593 1.2548 0
M  V30 39 H -3.9968 1.6498 -1.0007 0
M  V30 40 H -3.0747 1.6894 3.1877 0
M  V30 41 H -1.5424 -5.0751 -1.1179 0
M  V30 42 H -4.6364 2.1948 1.3319 0
M  V30 END ATOM
M  V30 BEGIN BOND
M  V30 1 1 1 2
M  V30 2 2 2 3
M  V30 3 1 2 4
M  V30 4 1 3 5
M  V30 5 1 3 6
M  V30 6 2 4 7
M  V30 7 2 5 8
M  V30 8 1 6 9
M  V30 9 1 6 10
M  V30 10 1 6 11
M  V30 11 1 9 12
M  V30 12 1 9 13
M  V30 13 2 10 14
M  V30 14 1 10 15
M  V30 15 2 11 16
M  V30 16 1 11 17
M  V30 17 2 12 18
M  V30 18 2 13 19
M  V30 19 1 14 20
M  V30 20 2 15 21
M  V30 21 1 16 22
M  V30 22 2 17 23
M  V30 23 2 20 24
M  V30 24 2 22 25
M  V30 25 1 7 8
M  V30 26 1 18 19
M  V30 27 1 21 24
M  V30 28 1 23 25
M  V30 29 1 4 26
M  V30 30 1 5 27
M  V30 31 1 7 28
M  V30 32 1 8 29
M  V30 33 1 12 30
M  V30 34 1 13 31
M  V30 35 1 14 32
M  V30 36 1 15 33
M  V30 37 1 16 34
M  V30 38 1 17 35
M  V30 39 1 19 36
M  V30 40 1 20 37
M  V30 41 1 21 38
M  V30 42 1 22 39
M  V30 43 1 23 40
M  V30 44 1 24 41
M  V30 45 1 25 42
M  V30 END BOND
M  V30 END CTAB
M  END
>  <level_0>
2246

>  <index>
2246

>  <NO.>
2247

>  <Name>
clotrimazole

>  <SMILES>
Clc1ccccc1C(c1ccccc1)(c1ccccc1)n1ccnc1

>  <logBB>


>  <Class>
-1

>  <MW>
344.11

>  <nHBAcc>
1

>  <nHBDon>
0

>  <SLogP>
5.38

>  <TopoPSA>
17.82

>  <MMFF94 Energy>
134.96

$$$$
Clc1ccccc1C1=NCc2nnc(C3CCCCC3)n2-c2sc(Br)cc21
Actelion Java MolfileCreator 2.0

  0  0  0  0  0  0              0 V3000
M  V30 BEGIN CTAB
M  V30 COUNTS 45 49 0 0 0
M  V30 BEGIN ATOM
M  V30 1 Br -1.751 -0.6668 -4.5908 0
M  V30 2 C -1.5279 -0.5183 -2.7005 0
M  V30 3 S -0.8422 0.8263 -1.9489 0
M  V30 4 C -1.9021 -1.4935 -1.8133 0
M  V30 5 C -1.0311 0.1325 -0.4116 0
M  V30 6 C -1.6236 -1.1239 -0.4439 0
M  V30 7 N -0.6614 0.8518 0.7327 0
M  V30 8 C -1.8464 -1.9915 0.7179 0
M  V30 9 C 0.2993 1.8362 0.9643 0
M  V30 10 C -1.2754 0.6968 1.9632 0
M  V30 11 N -2.1536 -1.586 1.8981 0
M  V30 12 C -1.6558 -3.4432 0.5139 0
M  V30 13 N 0.2082 2.2462 2.2164 0
M  V30 14 C 1.3639 2.313 0.0175 0
M  V30 15 N -0.7641 1.5285 2.8417 0
M  V30 16 C -2.4493 -0.184 2.1622 0
M  V30 17 C -2.7453 -4.3051 0.356 0
M  V30 18 C -0.3462 -3.9408 0.502 0
M  V30 19 C 1.0094 3.7006 -0.5403 0
M  V30 20 C 2.7362 2.362 0.7189 0
M  V30 21 Cl -4.3746 -3.7364 0.3321 0
M  V30 22 C -2.5185 -5.6716 0.1755 0
M  V30 23 C -0.129 -5.3068 0.3218 0
M  V30 24 C 2.0957 4.2209 -1.4794 0
M  V30 25 C 3.8251 2.8795 -0.2194 0
M  V30 26 C -1.2131 -6.1702 0.1584 0
M  V30 27 C 3.4628 4.2423 -0.8021 0
M  V30 28 H -2.3562 -2.429 -2.12 0
M  V30 29 H 1.4802 1.6076 -0.81 0
M  V30 30 H -3.298 0.1546 1.5545 0
M  V30 31 H -2.7797 -0.1027 3.2044 0
M  V30 32 H 0.5008 -3.2742 0.6468 0
M  V30 33 H 0.0536 3.6701 -1.076 0
M  V30 34 H 0.875 4.4145 0.2836 0
M  V30 35 H 2.6925 3.0101 1.6044 0
M  V30 36 H 3.0104 1.3617 1.0771 0
M  V30 37 H -3.3542 -6.3562 0.0487 0
M  V30 38 H 0.885 -5.7011 0.3177 0
M  V30 39 H 2.1398 3.5861 -2.3729 0
M  V30 40 H 1.8372 5.2308 -1.8176 0
M  V30 41 H 3.976 2.1614 -1.0348 0
M  V30 42 H 4.7748 2.9513 0.3226 0
M  V30 43 H -1.0422 -7.2361 0.0226 0
M  V30 44 H 3.4598 4.9916 -5.0E-4 0
M  V30 45 H 4.2275 4.5503 -1.5239 0
M  V30 END ATOM
M  V30 BEGIN BOND
M  V30 1 1 1 2
M  V30 2 1 2 3
M  V30 3 2 2 4
M  V30 4 1 3 5
M  V30 5 1 4 6
M  V30 6 1 5 7
M  V30 7 1 6 8
M  V30 8 1 7 9
M  V30 9 1 7 10
M  V30 10 2 8 11
M  V30 11 1 8 12
M  V30 12 2 9 13
M  V30 13 1 9 14
M  V30 14 2 10 15
M  V30 15 1 10 16
M  V30 16 2 12 17
M  V30 17 1 12 18
M  V30 18 1 14 19
M  V30 19 1 14 20
M  V30 20 1 17 21
M  V30 21 1 17 22
M  V30 22 2 18 23
M  V30 23 1 19 24
M  V30 24 1 20 25
M  V30 25 2 22 26
M  V30 26 1 24 27
M  V30 27 2 5 6
M  V30 28 1 11 16
M  V30 29 1 13 15
M  V30 30 1 23 26
M  V30 31 1 25 27
M  V30 32 1 4 28
M  V30 33 1 14 29
M  V30 34 1 16 30
M  V30 35 1 16 31
M  V30 36 1 18 32
M  V30 37 1 19 33
M  V30 38 1 19 34
M  V30 39 1 20 35
M  V30 40 1 20 36
M  V30 41 1 22 37
M  V30 42 1 23 38
M  V30 43 1 24 39
M  V30 44 1 24 40
M  V30 45 1 25 41
M  V30 46 1 25 42
M  V30 47 1 26 43
M  V30 48 1 27 44
M  V30 49 1 27 45
M  V30 END BOND
M  V30 END CTAB
M  END
>  <level_0>
2247

>  <index>
2247

>  <NO.>
2248

>  <Name>
ciclotizolam

>  <SMILES>
Clc1ccccc1C1=NCc2nnc(C3CCCCC3)n2-c2sc(Br)cc21

>  <logBB>


>  <Class>
1

>  <MW>
460.01

>  <nHBAcc>
4

>  <nHBDon>
0

>  <SLogP>
6.14

>  <TopoPSA>
43.07

>  <MMFF94 Energy>
76.681

$$$$
Cn1c(=O)c2c(ncn2CCNCC(O)c2ccc(O)c(O)c2)n(C)c1=O
Actelion Java MolfileCreator 2.0

  0  0  0  0  0  0              0 V3000
M  V30 BEGIN CTAB
M  V30 COUNTS 48 50 0 0 0
M  V30 BEGIN ATOM
M  V30 1 O -3.0857 4.5917 -3.7989 0
M  V30 2 C -2.9757 3.6007 -3.0709 0
M  V30 3 N -1.7944 2.8296 -3.0707 0
M  V30 4 N -4.0015 3.1949 -2.2169 0
M  V30 5 C -1.5594 1.6991 -2.2834 0
M  V30 6 C -0.7418 3.2713 -3.9647 0
M  V30 7 C -3.8214 2.0838 -1.4296 0
M  V30 8 C -5.2494 3.9343 -2.157 0
M  V30 9 O -0.5142 1.0554 -2.2873 0
M  V30 10 C -2.6655 1.3636 -1.4545 0
M  V30 11 N -4.7249 1.5675 -0.5512 0
M  V30 12 N -2.8604 0.3545 -0.5534 0
M  V30 13 C -4.1192 0.5174 -0.0349 0
M  V30 14 C -1.9366 -0.7104 -0.2125 0
M  V30 15 C -0.9052 -0.2632 0.8316 0
M  V30 16 N 0.0616 -1.2975 1.215 0
M  V30 17 C 1.1106 -1.4877 0.1906 0
M  V30 18 C 2.0878 -2.641 0.5456 0 CFG=2
M  V30 19 O 1.3091 -3.7916 0.9141 0
M  V30 20 C 3.1332 -2.3872 1.6173 0
M  V30 21 C 4.183 -3.3167 1.755 0
M  V30 22 C 3.097 -1.2909 2.4916 0
M  V30 23 C 5.165 -3.1418 2.7299 0
M  V30 24 C 4.0837 -1.1169 3.4685 0
M  V30 25 O 6.1808 -4.0468 2.8575 0
M  V30 26 C 5.1159 -2.043 3.5836 0
M  V30 27 O 6.0846 -1.8854 4.534 0
M  V30 28 H -0.4436 4.2874 -3.6857 0
M  V30 29 H -1.1305 3.2972 -4.9881 0
M  V30 30 H 0.1363 2.6219 -3.9347 0
M  V30 31 H -5.4006 4.2978 -1.1356 0
M  V30 32 H -6.0727 3.2686 -2.4348 0
M  V30 33 H -5.2492 4.7911 -2.8358 0
M  V30 34 H -4.5408 -0.1493 0.7071 0
M  V30 35 H -1.4689 -1.0459 -1.1431 0
M  V30 36 H -2.5285 -1.5502 0.1709 0
M  V30 37 H -1.4427 0.0287 1.7425 0
M  V30 38 H -0.3784 0.6414 0.504 0
M  V30 39 H -0.4029 -2.198 1.3534 0
M  V30 40 H 1.6666 -0.5575 0.026 0
M  V30 41 H 0.6256 -1.7601 -0.7539 0
M  V30 42 H 2.6192 -2.8987 -0.3793 0
M  V30 43 H 1.3358 -3.8368 1.8869 0
M  V30 44 H 4.2178 -4.1785 1.0926 0
M  V30 45 H 2.2985 -0.5541 2.435 0
M  V30 46 H 4.0257 -0.2568 4.1286 0
M  V30 47 H 6.0718 -4.7429 2.1923 0
M  V30 48 H 5.9081 -1.074 5.0336 0
M  V30 END ATOM
M  V30 BEGIN BOND
M  V30 1 2 1 2
M  V30 2 1 2 3
M  V30 3 1 2 4
M  V30 4 1 3 5
M  V30 5 1 3 6
M  V30 6 1 4 7
M  V30 7 1 4 8
M  V30 8 2 5 9
M  V30 9 1 5 10
M  V30 10 1 7 11
M  V30 11 1 10 12
M  V30 12 2 11 13
M  V30 13 1 12 14
M  V30 14 1 14 15
M  V30 15 1 15 16
M  V30 16 1 16 17
M  V30 17 1 17 18
M  V30 18 1 18 19
M  V30 19 1 18 20
M  V30 20 2 20 21
M  V30 21 1 20 22
M  V30 22 1 21 23
M  V30 23 2 22 24
M  V30 24 1 23 25
M  V30 25 2 23 26
M  V30 26 1 26 27
M  V30 27 2 7 10
M  V30 28 1 12 13
M  V30 29 1 24 26
M  V30 30 1 6 28
M  V30 31 1 6 29
M  V30 32 1 6 30
M  V30 33 1 8 31
M  V30 34 1 8 32
M  V30 35 1 8 33
M  V30 36 1 13 34
M  V30 37 1 14 35
M  V30 38 1 14 36
M  V30 39 1 15 37
M  V30 40 1 15 38
M  V30 41 1 16 39
M  V30 42 1 17 40
M  V30 43 1 17 41
M  V30 44 1 18 42
M  V30 45 1 19 43
M  V30 46 1 21 44
M  V30 47 1 22 45
M  V30 48 1 24 46
M  V30 49 1 25 47
M  V30 50 1 27 48
M  V30 END BOND
M  V30 BEGIN COLLECTION
M  V30 MDLV30/STERAC1 ATOMS=(1 18)
M  V30 END COLLECTION
M  V30 END CTAB
M  END
>  <level_0>
2250

>  <index>
2250

>  <NO.>
2251

>  <Name>
theodrenaline

>  <SMILES>
Cn1c(=O)c2c(ncn2CCNCC(O)c2ccc(O)c(O)c2)n(C)c1=O

>  <logBB>


>  <Class>
-1

>  <MW>
375.15

>  <nHBAcc>
7

>  <nHBDon>
4

>  <SLogP>
-0.83

>  <TopoPSA>
134.54

>  <MMFF94 Energy>
-61.575

$$$$
Cn1nnnc1SCC1=C(C(=O)O)N2C(=O)[C@@H](NC(=O)CS/C=C\C#N)[C@H]2SC1
Actelion Java MolfileCreator 2.0

  0  0  0  0  0  0              0 V3000
M  V30 BEGIN CTAB
M  V30 COUNTS 44 46 0 0 0
M  V30 BEGIN ATOM
M  V30 1 S -0.4183 -1.2553 -1.0041 0
M  V30 2 C 0.4186 0.3529 -0.9801 0 CFG=1
M  V30 3 C -1.7594 -0.6919 0.096 0
M  V30 4 N 0.7954 0.6255 0.383 0
M  V30 5 C 1.9395 0.3785 -1.3238 0 CFG=1
M  V30 6 C -1.2721 0.0211 1.3486 0
M  V30 7 C -0.0454 0.5872 1.4479 0
M  V30 8 C 2.1117 0.8328 0.1736 0
M  V30 9 N 2.5731 -0.9248 -1.669 0
M  V30 10 C -2.279 -0.0064 2.4828 0
M  V30 11 C 0.4465 1.1739 2.7233 0
M  V30 12 O 3.0128 1.1406 0.916 0
M  V30 13 C 3.8311 -0.9984 -2.2223 0
M  V30 14 S -3.5086 1.3113 2.2134 0
M  V30 15 O 0.5001 0.6193 3.8047 0
M  V30 16 O 0.8075 2.4581 2.5516 0
M  V30 17 O 4.4838 -0.0041 -2.53 0
M  V30 18 C 4.3414 -2.4079 -2.4538 0
M  V30 19 C -4.5874 0.9988 3.5232 0
M  V30 20 S 3.6662 -3.072 -4.0053 0
M  V30 21 N -4.5887 -0.0423 4.322 0
M  V30 22 N -5.6112 1.8245 3.8835 0
M  V30 23 C 4.4981 -2.1043 -5.1785 0
M  V30 24 N -5.637 0.1538 5.1908 0
M  V30 25 N -6.268 1.2915 4.9288 0
M  V30 26 C -6.0223 3.0802 3.3227 0
M  V30 27 C 4.2545 -2.1369 -6.4961 0
M  V30 28 C 3.2844 -2.9552 -7.1362 0
M  V30 29 N 2.5006 -3.6029 -7.6945 0
M  V30 30 H -0.1478 1.1703 -1.4418 0
M  V30 31 H -2.3215 -1.5912 0.3678 0
M  V30 32 H -2.4305 -0.0372 -0.4699 0
M  V30 33 H 2.1977 1.1631 -2.0446 0
M  V30 34 H 2.055 -1.7856 -1.5094 0
M  V30 35 H -2.7746 -0.9833 2.5158 0
M  V30 36 H -1.8249 0.141 3.4643 0
M  V30 37 H 1.204 2.7121 3.4106 0
M  V30 38 H 5.4356 -2.4035 -2.4744 0
M  V30 39 H 4.0257 -3.0514 -1.6264 0
M  V30 40 H 5.2675 -1.4213 -4.822 0
M  V30 41 H -6.8796 3.468 3.8795 0
M  V30 42 H -5.1913 3.7861 3.3947 0
M  V30 43 H -6.3057 2.9223 2.2793 0
M  V30 44 H 4.8295 -1.4892 -7.1495 0
M  V30 END ATOM
M  V30 BEGIN BOND
M  V30 1 1 1 2
M  V30 2 1 1 3
M  V30 3 1 2 4
M  V30 4 1 2 5
M  V30 5 1 3 6
M  V30 6 1 4 7
M  V30 7 1 4 8
M  V30 8 1 5 9
M  V30 9 1 6 10
M  V30 10 1 7 11
M  V30 11 2 8 12
M  V30 12 1 9 13
M  V30 13 1 10 14
M  V30 14 2 11 15
M  V30 15 1 11 16
M  V30 16 2 13 17
M  V30 17 1 13 18
M  V30 18 1 14 19
M  V30 19 1 18 20
M  V30 20 2 19 21
M  V30 21 1 19 22
M  V30 22 1 20 23
M  V30 23 1 21 24
M  V30 24 1 22 25
M  V30 25 1 22 26
M  V30 26 2 23 27
M  V30 27 1 27 28
M  V30 28 3 28 29
M  V30 29 1 5 8
M  V30 30 2 6 7
M  V30 31 2 24 25
M  V30 32 1 2 30
M  V30 33 1 3 31
M  V30 34 1 3 32
M  V30 35 1 5 33
M  V30 36 1 9 34
M  V30 37 1 10 35
M  V30 38 1 10 36
M  V30 39 1 16 37
M  V30 40 1 18 38
M  V30 41 1 18 39
M  V30 42 1 23 40
M  V30 43 1 26 41
M  V30 44 1 26 42
M  V30 45 1 26 43
M  V30 46 1 27 44
M  V30 END BOND
M  V30 BEGIN COLLECTION
M  V30 MDLV30/STEABS ATOMS=(2 2 5)
M  V30 END COLLECTION
M  V30 END CTAB
M  END
>  <level_0>
2254

>  <index>
2254

>  <NO.>
2255

>  <Name>
cefivitril

>  <SMILES>
Cn1nnnc1SCC1=C(C(=O)O)N2C(=O)[C@@H](NC(=O)CS/C=C\C#N)[C@H]2SC1

>  <logBB>


>  <Class>
-1

>  <MW>
453.03

>  <nHBAcc>
10

>  <nHBDon>
2

>  <SLogP>
-0.19

>  <TopoPSA>
154.1

>  <MMFF94 Energy>
11.85

$$$$
FC(F)(F)c1ccc2c(c1)N(CCCN1CCN(C3CC3)CC1)c1ccccc1S2
Actelion Java MolfileCreator 2.0

  0  0  0  0  0  0              0 V3000
M  V30 BEGIN CTAB
M  V30 COUNTS 56 60 0 0 0
M  V30 BEGIN ATOM
M  V30 1 S -0.3259 -3.4264 -1.6305 0
M  V30 2 C -1.495 -3.2642 -0.297 0
M  V30 3 C -0.9681 -2.2675 -2.8217 0
M  V30 4 C -2.4119 -2.1991 -0.2079 0
M  V30 5 C -1.4581 -4.2617 0.6919 0
M  V30 6 C -1.9266 -1.287 -2.496 0
M  V30 7 C -0.4461 -2.3541 -4.1243 0
M  V30 8 N -2.4458 -1.1659 -1.1787 0
M  V30 9 C -3.329 -2.2285 0.8632 0
M  V30 10 C -2.3495 -4.2419 1.762 0
M  V30 11 C -2.3648 -0.4447 -3.5388 0
M  V30 12 C -0.8829 -1.4936 -5.127 0
M  V30 13 C -2.7301 0.2091 -0.6982 0
M  V30 14 C -3.3007 -3.2254 1.8564 0
M  V30 15 C -1.8491 -0.5421 -4.8352 0
M  V30 16 C -1.4719 1.0894 -0.6192 0
M  V30 17 C -4.3147 -3.2156 2.973 0
M  V30 18 C -0.4578 0.5741 0.4093 0
M  V30 19 F -4.6578 -1.9566 3.3656 0
M  V30 20 F -5.4781 -3.8281 2.6226 0
M  V30 21 F -3.8808 -3.8485 4.0984 0
M  V30 22 N 0.6363 1.533 0.6492 0
M  V30 23 C 1.4277 1.1068 1.8245 0
M  V30 24 C 1.5473 1.6305 -0.5116 0
M  V30 25 C 2.6281 2.0377 2.1084 0
M  V30 26 C 2.7523 2.5588 -0.2411 0
M  V30 27 N 3.526 2.1622 0.9502 0
M  V30 28 C 4.7346 2.9902 1.1203 0
M  V30 29 C 4.6547 4.4271 1.5611 0
M  V30 30 C 5.2905 3.4022 2.4556 0
M  V30 31 H -0.7354 -5.0729 0.6246 0
M  V30 32 H 0.3047 -3.1034 -4.3655 0
M  V30 33 H -4.1202 -1.4834 0.9242 0
M  V30 34 H -2.3069 -5.0329 2.5091 0
M  V30 35 H -3.1391 0.2969 -3.3701 0
M  V30 36 H -0.477 -1.5745 -6.1315 0
M  V30 37 H -3.196 0.2273 0.2918 0
M  V30 38 H -3.4735 0.69 -1.3439 0
M  V30 39 H -2.2109 0.124 -5.6141 0
M  V30 40 H -1.7881 2.1015 -0.3349 0
M  V30 41 H -1.0076 1.1748 -1.6063 0
M  V30 42 H -0.9957 0.4132 1.3526 0
M  V30 43 H -0.0531 -0.3966 0.1009 0
M  V30 44 H 0.7854 1.1055 2.7138 0
M  V30 45 H 1.7957 0.0806 1.6874 0
M  V30 46 H 1.9185 0.6362 -0.7943 0
M  V30 47 H 1.0121 2.0378 -1.376 0
M  V30 48 H 2.2504 3.0207 2.4167 0
M  V30 49 H 3.1757 1.6111 2.9564 0
M  V30 50 H 2.3924 3.5907 -0.133 0
M  V30 51 H 3.4035 2.5351 -1.1234 0
M  V30 52 H 5.4874 2.7737 0.3615 0
M  V30 53 H 5.3017 5.1413 1.0654 0
M  V30 54 H 3.6965 4.8355 1.8571 0
M  V30 55 H 4.7739 3.1457 3.3705 0
M  V30 56 H 6.3694 3.4213 2.5626 0
M  V30 END ATOM
M  V30 BEGIN BOND
M  V30 1 1 1 2
M  V30 2 1 1 3
M  V30 3 2 2 4
M  V30 4 1 2 5
M  V30 5 2 3 6
M  V30 6 1 3 7
M  V30 7 1 4 8
M  V30 8 1 4 9
M  V30 9 2 5 10
M  V30 10 1 6 11
M  V30 11 2 7 12
M  V30 12 1 8 13
M  V30 13 2 9 14
M  V30 14 2 11 15
M  V30 15 1 13 16
M  V30 16 1 14 17
M  V30 17 1 16 18
M  V30 18 1 17 19
M  V30 19 1 17 20
M  V30 20 1 17 21
M  V30 21 1 18 22
M  V30 22 1 22 23
M  V30 23 1 22 24
M  V30 24 1 23 25
M  V30 25 1 24 26
M  V30 26 1 25 27
M  V30 27 1 27 28
M  V30 28 1 28 29
M  V30 29 1 28 30
M  V30 30 1 6 8
M  V30 31 1 10 14
M  V30 32 1 12 15
M  V30 33 1 26 27
M  V30 34 1 29 30
M  V30 35 1 5 31
M  V30 36 1 7 32
M  V30 37 1 9 33
M  V30 38 1 10 34
M  V30 39 1 11 35
M  V30 40 1 12 36
M  V30 41 1 13 37
M  V30 42 1 13 38
M  V30 43 1 15 39
M  V30 44 1 16 40
M  V30 45 1 16 41
M  V30 46 1 18 42
M  V30 47 1 18 43
M  V30 48 1 23 44
M  V30 49 1 23 45
M  V30 50 1 24 46
M  V30 51 1 24 47
M  V30 52 1 25 48
M  V30 53 1 25 49
M  V30 54 1 26 50
M  V30 55 1 26 51
M  V30 56 1 28 52
M  V30 57 1 29 53
M  V30 58 1 29 54
M  V30 59 1 30 55
M  V30 60 1 30 56
M  V30 END BOND
M  V30 END CTAB
M  END
>  <level_0>
2258

>  <index>
2258

>  <NO.>
2259

>  <Name>
cyclophenazine

>  <SMILES>
FC(F)(F)c1ccc2c(c1)N(CCCN1CCN(C3CC3)CC1)c1ccccc1S2

>  <logBB>


>  <Class>
1

>  <MW>
433.18

>  <nHBAcc>
4

>  <nHBDon>
0

>  <SLogP>
5.48

>  <TopoPSA>
9.72

>  <MMFF94 Energy>
153.92

$$$$
FC(F)(F)c1ccc2c(c1)N(CCCN1CCN(CCC3OCCCO3)CC1)c1ccccc1S2
Actelion Java MolfileCreator 2.0

  0  0  0  0  0  0              0 V3000
M  V30 BEGIN CTAB
M  V30 COUNTS 67 71 0 0 0
M  V30 BEGIN ATOM
M  V30 1 S -1.9482 -5.5275 3.086 0
M  V30 2 C -1.0493 -5.9437 1.6066 0
M  V30 3 C -2.7124 -3.9836 2.6322 0
M  V30 4 C -0.8219 -5.0262 0.5638 0
M  V30 5 C -0.5499 -7.2547 1.5251 0
M  V30 6 C -2.3312 -3.2443 1.4955 0
M  V30 7 C -3.721 -3.5074 3.4889 0
M  V30 8 N -1.2956 -3.6899 0.6286 0
M  V30 9 C -0.1388 -5.499 -0.5758 0
M  V30 10 C 0.1523 -7.6852 0.4014 0
M  V30 11 C -3.04 -2.0538 1.2327 0
M  V30 12 C -4.3837 -2.3134 3.2182 0
M  V30 13 C -0.3506 -2.638 0.1683 0
M  V30 14 C 0.3629 -6.8105 -0.6653 0
M  V30 15 C -4.0485 -1.5899 2.0832 0
M  V30 16 C 0.635 -2.265 1.2854 0
M  V30 17 C 1.0734 -7.2676 -1.9144 0
M  V30 18 C 1.6563 -1.2131 0.8372 0
M  V30 19 F 1.8373 -6.289 -2.4767 0
M  V30 20 F 1.916 -8.3165 -1.7005 0
M  V30 21 F 0.2097 -7.6722 -2.8851 0
M  V30 22 N 1.0559 0.0348 0.341 0
M  V30 23 C 2.0967 0.8967 -0.2596 0
M  V30 24 C 0.3831 0.794 1.4176 0
M  V30 25 C 1.5347 2.2483 -0.7598 0
M  V30 26 C -0.1786 2.1457 0.9196 0
M  V30 27 N 0.8584 3.0076 0.3116 0
M  V30 28 C 0.2468 4.2543 -0.1847 0
M  V30 29 C 1.287 5.3094 -0.5775 0
M  V30 30 C 0.6187 6.6478 -0.9253 0
M  V30 31 O 1.5703 7.6863 -1.1606 0
M  V30 32 O -0.3455 6.5423 -1.9721 0
M  V30 33 C 2.2298 7.576 -2.4149 0
M  V30 34 C 0.2366 6.3829 -3.2597 0
M  V30 35 C 1.2152 7.5065 -3.5394 0
M  V30 36 H -0.7171 -7.9558 2.341 0
M  V30 37 H -4.0013 -4.0743 4.3742 0
M  V30 38 H -0.0163 -4.8526 -1.4428 0
M  V30 39 H 0.5196 -8.7093 0.36 0
M  V30 40 H -2.843 -1.475 0.3352 0
M  V30 41 H -5.1666 -1.9601 3.8838 0
M  V30 42 H -0.8848 -1.7494 -0.1799 0
M  V30 43 H 0.218 -2.9533 -0.7119 0
M  V30 44 H -4.5751 -0.6686 1.8478 0
M  V30 45 H 1.1848 -3.1609 1.6008 0
M  V30 46 H 0.0971 -1.9176 2.1747 0
M  V30 47 H 2.3478 -1.0093 1.6652 0
M  V30 48 H 2.2552 -1.6639 0.035 0
M  V30 49 H 2.5455 0.3802 -1.1169 0
M  V30 50 H 2.9011 1.0894 0.4634 0
M  V30 51 H -0.4605 0.2178 1.8127 0
M  V30 52 H 1.0752 0.9777 2.2504 0
M  V30 53 H 2.379 2.8242 -1.1535 0
M  V30 54 H 0.8454 2.0626 -1.5945 0
M  V30 55 H -0.6233 2.6626 1.7789 0
M  V30 56 H -0.9867 1.9526 0.2006 0
M  V30 57 H -0.3707 4.6829 0.6154 0
M  V30 58 H -0.4243 4.0459 -1.0276 0
M  V30 59 H 1.8759 4.951 -1.4267 0
M  V30 60 H 1.9991 5.4697 0.2418 0
M  V30 61 H 0.0573 6.9701 -0.0412 0
M  V30 62 H 2.8639 8.46 -2.538 0
M  V30 63 H 2.8919 6.7038 -2.4149 0
M  V30 64 H 0.7177 5.4017 -3.3336 0
M  V30 65 H -0.5728 6.4 -3.9966 0
M  V30 66 H 1.7076 7.369 -4.5067 0
M  V30 67 H 0.6609 8.4526 -3.5677 0
M  V30 END ATOM
M  V30 BEGIN BOND
M  V30 1 1 1 2
M  V30 2 1 1 3
M  V30 3 2 2 4
M  V30 4 1 2 5
M  V30 5 2 3 6
M  V30 6 1 3 7
M  V30 7 1 4 8
M  V30 8 1 4 9
M  V30 9 2 5 10
M  V30 10 1 6 11
M  V30 11 2 7 12
M  V30 12 1 8 13
M  V30 13 2 9 14
M  V30 14 2 11 15
M  V30 15 1 13 16
M  V30 16 1 14 17
M  V30 17 1 16 18
M  V30 18 1 17 19
M  V30 19 1 17 20
M  V30 20 1 17 21
M  V30 21 1 18 22
M  V30 22 1 22 23
M  V30 23 1 22 24
M  V30 24 1 23 25
M  V30 25 1 24 26
M  V30 26 1 25 27
M  V30 27 1 27 28
M  V30 28 1 28 29
M  V30 29 1 29 30
M  V30 30 1 30 31
M  V30 31 1 30 32
M  V30 32 1 31 33
M  V30 33 1 32 34
M  V30 34 1 33 35
M  V30 35 1 6 8
M  V30 36 1 10 14
M  V30 37 1 12 15
M  V30 38 1 26 27
M  V30 39 1 34 35
M  V30 40 1 5 36
M  V30 41 1 7 37
M  V30 42 1 9 38
M  V30 43 1 10 39
M  V30 44 1 11 40
M  V30 45 1 12 41
M  V30 46 1 13 42
M  V30 47 1 13 43
M  V30 48 1 15 44
M  V30 49 1 16 45
M  V30 50 1 16 46
M  V30 51 1 18 47
M  V30 52 1 18 48
M  V30 53 1 23 49
M  V30 54 1 23 50
M  V30 55 1 24 51
M  V30 56 1 24 52
M  V30 57 1 25 53
M  V30 58 1 25 54
M  V30 59 1 26 55
M  V30 60 1 26 56
M  V30 61 1 28 57
M  V30 62 1 28 58
M  V30 63 1 29 59
M  V30 64 1 29 60
M  V30 65 1 30 61
M  V30 66 1 33 62
M  V30 67 1 33 63
M  V30 68 1 34 64
M  V30 69 1 34 65
M  V30 70 1 35 66
M  V30 71 1 35 67
M  V30 END BOND
M  V30 END CTAB
M  END
>  <level_0>
2259

>  <index>
2259

>  <NO.>
2260

>  <Name>
oxaflumazine

>  <SMILES>
FC(F)(F)c1ccc2c(c1)N(CCCN1CCN(CCC3OCCCO3)CC1)c1ccccc1S2

>  <logBB>


>  <Class>
1

>  <MW>
507.22

>  <nHBAcc>
6

>  <nHBDon>
0

>  <SLogP>
5.47

>  <TopoPSA>
28.18

>  <MMFF94 Energy>
139.64

$$$$
FC(F)(F)c1cccc(C2=CCN(CCc3ccc4ccccc4c3)CC2)c1
Actelion Java MolfileCreator 2.0

  0  0  0  0  0  0              0 V3000
M  V30 BEGIN CTAB
M  V30 COUNTS 50 53 0 0 0
M  V30 BEGIN ATOM
M  V30 1 F -3.3861 3.2246 6.6999 0
M  V30 2 C -2.4958 2.2359 6.9903 0
M  V30 3 F -3.1478 1.064 6.7498 0
M  V30 4 F -2.3103 2.2856 8.3396 0
M  V30 5 C -1.2142 2.3719 6.2077 0
M  V30 6 C -1.1222 1.8531 4.9034 0
M  V30 7 C -0.1114 3.0452 6.7505 0
M  V30 8 C 0.054 1.9793 4.1501 0
M  V30 9 C 1.0615 3.1834 6.0113 0
M  V30 10 C 0.1305 1.4391 2.7778 0
M  V30 11 C 1.1419 2.6546 4.7214 0
M  V30 12 C 1.206 0.7574 2.3418 0
M  V30 13 C -1.0411 1.6567 1.8515 0
M  V30 14 C 1.3162 0.1742 0.9591 0
M  V30 15 C -0.6705 1.4183 0.3779 0
M  V30 16 N 0.0456 0.1424 0.2165 0
M  V30 17 C 0.2485 -0.1543 -1.2139 0
M  V30 18 C 0.7992 -1.5668 -1.4743 0
M  V30 19 C 0.8742 -1.869 -2.9528 0
M  V30 20 C -0.2133 -2.4604 -3.612 0
M  V30 21 C 2.0155 -1.5365 -3.689 0
M  V30 22 C -0.1694 -2.7294 -4.9905 0
M  V30 23 C 2.0736 -1.7984 -5.0597 0
M  V30 24 C 0.9906 -2.3939 -5.7241 0
M  V30 25 C -1.254 -3.3238 -5.656 0
M  V30 26 C 1.0342 -2.6627 -7.1018 0
M  V30 27 C -1.1952 -3.5844 -7.026 0
M  V30 28 C -0.0522 -3.2543 -7.7481 0
M  V30 29 H -1.9805 1.3283 4.4853 0
M  V30 30 H -0.1628 3.465 7.7541 0
M  V30 31 H 1.9142 3.708 6.4357 0
M  V30 32 H 2.0625 2.7908 4.1582 0
M  V30 33 H 2.058 0.5831 2.9932 0
M  V30 34 H -1.8551 0.9759 2.1312 0
M  V30 35 H -1.4184 2.682 1.9497 0
M  V30 36 H 1.6885 -0.8504 1.0696 0
M  V30 37 H 2.0772 0.748 0.4147 0
M  V30 38 H -0.0651 2.2546 0.0022 0
M  V30 39 H -1.6016 1.4082 -0.2021 0
M  V30 40 H 0.9047 0.5966 -1.6746 0
M  V30 41 H -0.7195 -0.0749 -1.7271 0
M  V30 42 H 1.8006 -1.6839 -1.0432 0
M  V30 43 H 0.1658 -2.3161 -0.9821 0
M  V30 44 H -1.1062 -2.7139 -3.0429 0
M  V30 45 H 2.8696 -1.0718 -3.2016 0
M  V30 46 H 2.9745 -1.5323 -5.6077 0
M  V30 47 H -2.1555 -3.5895 -5.1085 0
M  V30 48 H 1.9187 -2.4119 -7.6828 0
M  V30 49 H -2.042 -4.0454 -7.5274 0
M  V30 50 H -0.0049 -3.457 -8.8147 0
M  V30 END ATOM
M  V30 BEGIN BOND
M  V30 1 1 1 2
M  V30 2 1 2 3
M  V30 3 1 2 4
M  V30 4 1 2 5
M  V30 5 2 5 6
M  V30 6 1 5 7
M  V30 7 1 6 8
M  V30 8 2 7 9
M  V30 9 1 8 10
M  V30 10 2 8 11
M  V30 11 2 10 12
M  V30 12 1 10 13
M  V30 13 1 12 14
M  V30 14 1 13 15
M  V30 15 1 14 16
M  V30 16 1 16 17
M  V30 17 1 17 18
M  V30 18 1 18 19
M  V30 19 2 19 20
M  V30 20 1 19 21
M  V30 21 1 20 22
M  V30 22 2 21 23
M  V30 23 1 22 24
M  V30 24 2 22 25
M  V30 25 2 24 26
M  V30 26 1 25 27
M  V30 27 1 26 28
M  V30 28 1 9 11
M  V30 29 1 15 16
M  V30 30 1 23 24
M  V30 31 2 27 28
M  V30 32 1 6 29
M  V30 33 1 7 30
M  V30 34 1 9 31
M  V30 35 1 11 32
M  V30 36 1 12 33
M  V30 37 1 13 34
M  V30 38 1 13 35
M  V30 39 1 14 36
M  V30 40 1 14 37
M  V30 41 1 15 38
M  V30 42 1 15 39
M  V30 43 1 17 40
M  V30 44 1 17 41
M  V30 45 1 18 42
M  V30 46 1 18 43
M  V30 47 1 20 44
M  V30 48 1 21 45
M  V30 49 1 23 46
M  V30 50 1 25 47
M  V30 51 1 26 48
M  V30 52 1 27 49
M  V30 53 1 28 50
M  V30 END BOND
M  V30 END CTAB
M  END
>  <level_0>
2260

>  <index>
2260

>  <NO.>
2261

>  <Name>
xaliproden

>  <SMILES>
FC(F)(F)c1cccc(C2=CCN(CCc3ccc4ccccc4c3)CC2)c1

>  <logBB>


>  <Class>
1

>  <MW>
381.17

>  <nHBAcc>
1

>  <nHBDon>
0

>  <SLogP>
6.19

>  <TopoPSA>
3.24

>  <MMFF94 Energy>
97.543

$$$$
Fc1ccc(C(CCCN2CCN(CCNc3ccccc3)CC2)c2ccc(F)cc2)cc1
Actelion Java MolfileCreator 2.0

  0  0  0  0  0  0              0 V3000
M  V30 BEGIN CTAB
M  V30 COUNTS 66 69 0 0 0
M  V30 BEGIN ATOM
M  V30 1 F 0.4774 -4.3827 5.8203 0
M  V30 2 C -0.098 -4.2798 4.6152 0
M  V30 3 C 0.1922 -5.2184 3.6354 0
M  V30 4 C -0.9809 -3.2381 4.3645 0
M  V30 5 C -0.4086 -5.1102 2.3801 0
M  V30 6 C -1.5842 -3.129 3.1092 0
M  V30 7 C -1.2997 -4.0578 2.0934 0
M  V30 8 C -1.9463 -3.9947 0.7106 0
M  V30 9 C -3.2135 -4.8479 0.6475 0
M  V30 10 C -2.2144 -2.5742 0.153 0
M  V30 11 C -4.3818 -4.4835 1.3404 0
M  V30 12 C -3.2205 -6.0329 -0.1101 0
M  V30 13 C -0.9262 -1.7705 -0.078 0
M  V30 14 C -5.5264 -5.2798 1.2718 0
M  V30 15 C -4.3667 -6.827 -0.1773 0
M  V30 16 C -1.2386 -0.4015 -0.6985 0
M  V30 17 C -5.5085 -6.4428 0.5135 0
M  V30 18 N -0.0524 0.461 -0.8029 0
M  V30 19 F -6.6076 -7.2057 0.4482 0
M  V30 20 C 0.9181 -0.0312 -1.8001 0
M  V30 21 C -0.455 1.8339 -1.176 0
M  V30 22 C 2.1227 0.9236 -1.9661 0
M  V30 23 C 0.7471 2.7912 -1.3588 0
M  V30 24 N 1.7213 2.2946 -2.3529 0
M  V30 25 C 2.9226 3.1598 -2.4242 0
M  V30 26 C 2.7112 4.5452 -3.0787 0
M  V30 27 N 2.1304 5.5327 -2.1805 0
M  V30 28 C 2.7938 6.1956 -1.1686 0
M  V30 29 C 4.1634 6.0618 -0.9183 0
M  V30 30 C 2.0637 7.046 -0.3258 0
M  V30 31 C 4.783 6.7505 0.1313 0
M  V30 32 C 2.6747 7.7376 0.725 0
M  V30 33 C 4.0378 7.5889 0.9539 0
M  V30 34 H 0.8795 -6.0289 3.8541 0
M  V30 35 H -1.1969 -2.5181 5.1474 0
M  V30 36 H -0.1805 -5.8579 1.6231 0
M  V30 37 H -2.2777 -2.3094 2.942 0
M  V30 38 H -1.2209 -4.4391 0.0126 0
M  V30 39 H -2.7371 -2.6663 -0.8092 0
M  V30 40 H -2.8885 -2.0081 0.8069 0
M  V30 41 H -4.4083 -3.5802 1.945 0
M  V30 42 H -2.3319 -6.3468 -0.6532 0
M  V30 43 H -0.3962 -1.6261 0.8702 0
M  V30 44 H -0.2668 -2.3457 -0.7372 0
M  V30 45 H -6.4283 -5.0019 1.8076 0
M  V30 46 H -4.3751 -7.7415 -0.7612 0
M  V30 47 H -1.7149 -0.5343 -1.6787 0
M  V30 48 H -1.9756 0.0922 -0.0514 0
M  V30 49 H 1.3165 -1.003 -1.4898 0
M  V30 50 H 0.4328 -0.1704 -2.7754 0
M  V30 51 H -1.0412 1.8201 -2.1053 0
M  V30 52 H -1.0994 2.2498 -0.3915 0
M  V30 53 H 2.6954 0.9404 -1.0284 0
M  V30 54 H 2.7779 0.506 -2.7403 0
M  V30 55 H 1.2307 2.9478 -0.3853 0
M  V30 56 H 0.3355 3.7503 -1.6857 0
M  V30 57 H 3.6565 2.6458 -3.0594 0
M  V30 58 H 3.3853 3.2613 -1.4347 0
M  V30 59 H 3.6617 4.9166 -3.48 0
M  V30 60 H 2.0501 4.4331 -3.947 0
M  V30 61 H 1.1495 5.7412 -2.3196 0
M  V30 62 H 4.7822 5.4213 -1.5381 0
M  V30 63 H 0.9959 7.1781 -0.4815 0
M  V30 64 H 5.8493 6.629 0.3019 0
M  V30 65 H 2.0825 8.3896 1.3612 0
M  V30 66 H 4.5176 8.1237 1.7687 0
M  V30 END ATOM
M  V30 BEGIN BOND
M  V30 1 1 1 2
M  V30 2 2 2 3
M  V30 3 1 2 4
M  V30 4 1 3 5
M  V30 5 2 4 6
M  V30 6 2 5 7
M  V30 7 1 7 8
M  V30 8 1 8 9
M  V30 9 1 8 10
M  V30 10 2 9 11
M  V30 11 1 9 12
M  V30 12 1 10 13
M  V30 13 1 11 14
M  V30 14 2 12 15
M  V30 15 1 13 16
M  V30 16 2 14 17
M  V30 17 1 16 18
M  V30 18 1 17 19
M  V30 19 1 18 20
M  V30 20 1 18 21
M  V30 21 1 20 22
M  V30 22 1 21 23
M  V30 23 1 22 24
M  V30 24 1 24 25
M  V30 25 1 25 26
M  V30 26 1 26 27
M  V30 27 1 27 28
M  V30 28 2 28 29
M  V30 29 1 28 30
M  V30 30 1 29 31
M  V30 31 2 30 32
M  V30 32 2 31 33
M  V30 33 1 6 7
M  V30 34 1 15 17
M  V30 35 1 23 24
M  V30 36 1 32 33
M  V30 37 1 3 34
M  V30 38 1 4 35
M  V30 39 1 5 36
M  V30 40 1 6 37
M  V30 41 1 8 38
M  V30 42 1 10 39
M  V30 43 1 10 40
M  V30 44 1 11 41
M  V30 45 1 12 42
M  V30 46 1 13 43
M  V30 47 1 13 44
M  V30 48 1 14 45
M  V30 49 1 15 46
M  V30 50 1 16 47
M  V30 51 1 16 48
M  V30 52 1 20 49
M  V30 53 1 20 50
M  V30 54 1 21 51
M  V30 55 1 21 52
M  V30 56 1 22 53
M  V30 57 1 22 54
M  V30 58 1 23 55
M  V30 59 1 23 56
M  V30 60 1 25 57
M  V30 61 1 25 58
M  V30 62 1 26 59
M  V30 63 1 26 60
M  V30 64 1 27 61
M  V30 65 1 29 62
M  V30 66 1 30 63
M  V30 67 1 31 64
M  V30 68 1 32 65
M  V30 69 1 33 66
M  V30 END BOND
M  V30 END CTAB
M  END
>  <level_0>
2264

>  <index>
2264

>  <NO.>
2265

>  <Name>
difluanine(difluanazine)

>  <SMILES>
Fc1ccc(C(CCCN2CCN(CCNc3ccccc3)CC2)c2ccc(F)cc2)cc1

>  <logBB>


>  <Class>
1

>  <MW>
449.26

>  <nHBAcc>
3

>  <nHBDon>
1

>  <SLogP>
5.61

>  <TopoPSA>
18.51

>  <MMFF94 Energy>
154.89

$$$$
Fc1ccccc1C1=NCC(=S)N(CC(F)(F)F)c2ccc(Cl)cc21
Actelion Java MolfileCreator 2.0

  0  0  0  0  0  0              0 V3000
M  V30 BEGIN CTAB
M  V30 COUNTS 36 38 0 0 0
M  V30 BEGIN ATOM
M  V30 1 Cl 1.418 4.5093 -0.6671 0
M  V30 2 C 1.0127 3.075 0.19 0
M  V30 3 C 1.0419 1.8468 -0.4629 0
M  V30 4 C 0.6761 3.1476 1.5374 0
M  V30 5 C 0.7118 0.6741 0.2361 0
M  V30 6 C 0.3523 1.9821 2.2373 0
M  V30 7 C 0.8294 -0.6227 -0.4863 0
M  V30 8 C 0.3463 0.7333 1.5949 0
M  V30 9 N 1.3931 -1.6749 0.0046 0
M  V30 10 C 0.2641 -0.7137 -1.8546 0
M  V30 11 N -0.0309 -0.4243 2.3502 0
M  V30 12 C 1.9363 -1.6075 1.3651 0
M  V30 13 C 1.0681 -1.1243 -2.9176 0
M  V30 14 C -1.0808 -0.3961 -2.0777 0
M  V30 15 C 0.7419 -1.5983 2.3233 0
M  V30 16 C -1.3681 -0.3667 3.0107 0
M  V30 17 F 2.3699 -1.3904 -2.738 0
M  V30 18 C 0.5418 -1.2169 -4.2034 0
M  V30 19 C -1.6085 -0.4909 -3.3676 0
M  V30 20 S 0.4414 -2.9771 3.2489 0
M  V30 21 C -2.5377 -0.6741 2.0748 0
M  V30 22 C -0.7986 -0.9008 -4.4289 0
M  V30 23 F -2.6219 0.241 1.0791 0
M  V30 24 F -2.4438 -1.891 1.5039 0
M  V30 25 F -3.7085 -0.6283 2.7534 0
M  V30 26 H 1.3476 1.8056 -1.5056 0
M  V30 27 H 0.6734 4.1052 2.0532 0
M  V30 28 H 0.1278 2.0669 3.2983 0
M  V30 29 H 2.5705 -2.4859 1.5268 0
M  V30 30 H 2.5785 -0.732 1.516 0
M  V30 31 H -1.7274 -0.0956 -1.2576 0
M  V30 32 H -1.4014 -1.0642 3.8515 0
M  V30 33 H -1.5206 0.6226 3.4532 0
M  V30 34 H 1.1818 -1.5337 -5.0211 0
M  V30 35 H -2.6556 -0.2538 -3.5443 0
M  V30 36 H -1.2132 -0.9774 -5.4314 0
M  V30 END ATOM
M  V30 BEGIN BOND
M  V30 1 1 1 2
M  V30 2 2 2 3
M  V30 3 1 2 4
M  V30 4 1 3 5
M  V30 5 2 4 6
M  V30 6 1 5 7
M  V30 7 2 5 8
M  V30 8 2 7 9
M  V30 9 1 7 10
M  V30 10 1 8 11
M  V30 11 1 9 12
M  V30 12 2 10 13
M  V30 13 1 10 14
M  V30 14 1 11 15
M  V30 15 1 11 16
M  V30 16 1 13 17
M  V30 17 1 13 18
M  V30 18 2 14 19
M  V30 19 2 15 20
M  V30 20 1 16 21
M  V30 21 2 18 22
M  V30 22 1 21 23
M  V30 23 1 21 24
M  V30 24 1 21 25
M  V30 25 1 6 8
M  V30 26 1 12 15
M  V30 27 1 19 22
M  V30 28 1 3 26
M  V30 29 1 4 27
M  V30 30 1 6 28
M  V30 31 1 12 29
M  V30 32 1 12 30
M  V30 33 1 14 31
M  V30 34 1 16 32
M  V30 35 1 16 33
M  V30 36 1 18 34
M  V30 37 1 19 35
M  V30 38 1 22 36
M  V30 END BOND
M  V30 END CTAB
M  END
>  <level_0>
2269

>  <index>
2269

>  <NO.>
2270

>  <Name>
quazepam

>  <SMILES>
Fc1ccccc1C1=NCC(=S)N(CC(F)(F)F)c2ccc(Cl)cc21

>  <logBB>


>  <Class>
1

>  <MW>
386.03

>  <nHBAcc>
2

>  <nHBDon>
0

>  <SLogP>
5.03

>  <TopoPSA>
15.6

>  <MMFF94 Energy>
146.34

$$$$
N#Cc1ccc2c(c1)C1=C(CCN(CC3CCCC3)CC1)c1ccccc1O2
Actelion Java MolfileCreator 2.0

  0  0  0  0  0  0              0 V3000
M  V30 BEGIN CTAB
M  V30 COUNTS 54 58 0 0 0
M  V30 BEGIN ATOM
M  V30 1 O -3.141 -0.7241 1.8515 0
M  V30 2 C -3.0646 -1.7992 0.9916 0
M  V30 3 C -2.3904 -0.9157 2.9928 0
M  V30 4 C -1.8628 -2.1498 0.3538 0
M  V30 5 C -4.2423 -2.5244 0.7849 0
M  V30 6 C -0.9895 -1.0082 2.947 0
M  V30 7 C -3.0914 -1.013 4.1992 0
M  V30 8 C -0.6403 -1.3146 0.4938 0
M  V30 9 C -1.8627 -3.3018 -0.4503 0
M  V30 10 C -4.2266 -3.6515 -0.0338 0
M  V30 11 C -0.2404 -0.7948 1.6799 0
M  V30 12 C -0.3167 -1.2725 4.1508 0
M  V30 13 C -2.4004 -1.2539 5.3833 0
M  V30 14 C 0.1496 -1.0493 -0.7766 0
M  V30 15 C -3.034 -4.0495 -0.6439 0
M  V30 16 C 1.0083 0.0656 1.77 0
M  V30 17 C -1.0151 -1.3951 5.3574 0
M  V30 18 C 0.2023 0.4363 -1.1788 0
M  V30 19 C -3.0081 -5.2189 -1.4732 0
M  V30 20 C 0.9211 1.3696 0.958 0
M  V30 21 N 1.2372 1.2209 -0.4777 0
M  V30 22 N -2.9883 -6.1636 -2.1469 0
M  V30 23 C 1.3884 2.5632 -1.0818 0
M  V30 24 C 2.0578 2.5545 -2.4643 0
M  V30 25 C 2.3523 3.9635 -2.9804 0
M  V30 26 C 3.4441 1.9109 -2.4836 0
M  V30 27 C 3.3502 3.7349 -4.1091 0
M  V30 28 C 4.0977 2.4493 -3.7538 0
M  V30 29 H -5.1614 -2.2187 1.278 0
M  V30 30 H -4.1734 -0.9181 4.2086 0
M  V30 31 H -0.941 -3.6326 -0.9271 0
M  V30 32 H -5.143 -4.2198 -0.1817 0
M  V30 33 H 0.7639 -1.395 4.1654 0
M  V30 34 H -2.9408 -1.3422 6.3222 0
M  V30 35 H 1.1612 -1.4662 -0.6863 0
M  V30 36 H -0.2996 -1.5757 -1.6273 0
M  V30 37 H 1.8911 -0.5186 1.4791 0
M  V30 38 H 1.1967 0.3683 2.8071 0
M  V30 39 H -0.4726 -1.5977 6.2778 0
M  V30 40 H -0.7873 0.9007 -1.0709 0
M  V30 41 H 0.4264 0.4344 -2.2509 0
M  V30 42 H 1.6673 2.043 1.4013 0
M  V30 43 H -0.0555 1.8519 1.1009 0
M  V30 44 H 0.4164 3.0708 -1.1432 0
M  V30 45 H 2.016 3.1805 -0.4246 0
M  V30 46 H 1.4157 2.0531 -3.1991 0
M  V30 47 H 1.4504 4.4771 -3.328 0
M  V30 48 H 2.8126 4.5806 -2.1989 0
M  V30 49 H 3.3977 0.8174 -2.4842 0
M  V30 50 H 4.0294 2.2214 -1.6091 0
M  V30 51 H 4.0292 4.5855 -4.2258 0
M  V30 52 H 2.8213 3.6033 -5.0604 0
M  V30 53 H 4.0051 1.7257 -4.5717 0
M  V30 54 H 5.166 2.6323 -3.5983 0
M  V30 END ATOM
M  V30 BEGIN BOND
M  V30 1 1 1 2
M  V30 2 1 1 3
M  V30 3 2 2 4
M  V30 4 1 2 5
M  V30 5 2 3 6
M  V30 6 1 3 7
M  V30 7 1 4 8
M  V30 8 1 4 9
M  V30 9 2 5 10
M  V30 10 1 6 11
M  V30 11 1 6 12
M  V30 12 2 7 13
M  V30 13 1 8 14
M  V30 14 2 9 15
M  V30 15 1 11 16
M  V30 16 2 12 17
M  V30 17 1 14 18
M  V30 18 1 15 19
M  V30 19 1 16 20
M  V30 20 1 18 21
M  V30 21 3 19 22
M  V30 22 1 21 23
M  V30 23 1 23 24
M  V30 24 1 24 25
M  V30 25 1 24 26
M  V30 26 1 25 27
M  V30 27 1 26 28
M  V30 28 2 8 11
M  V30 29 1 10 15
M  V30 30 1 13 17
M  V30 31 1 20 21
M  V30 32 1 27 28
M  V30 33 1 5 29
M  V30 34 1 7 30
M  V30 35 1 9 31
M  V30 36 1 10 32
M  V30 37 1 12 33
M  V30 38 1 13 34
M  V30 39 1 14 35
M  V30 40 1 14 36
M  V30 41 1 16 37
M  V30 42 1 16 38
M  V30 43 1 17 39
M  V30 44 1 18 40
M  V30 45 1 18 41
M  V30 46 1 20 42
M  V30 47 1 20 43
M  V30 48 1 23 44
M  V30 49 1 23 45
M  V30 50 1 24 46
M  V30 51 1 25 47
M  V30 52 1 25 48
M  V30 53 1 26 49
M  V30 54 1 26 50
M  V30 55 1 27 51
M  V30 56 1 27 52
M  V30 57 1 28 53
M  V30 58 1 28 54
M  V30 END BOND
M  V30 END CTAB
M  END
>  <level_0>
2274

>  <index>
2274

>  <NO.>
2275

>  <Name>
savoxepin

>  <SMILES>
N#Cc1ccc2c(c1)C1=C(CCN(CC3CCCC3)CC1)c1ccccc1O2

>  <logBB>


>  <Class>
1

>  <MW>
370.2

>  <nHBAcc>
3

>  <nHBDon>
0

>  <SLogP>
5.86

>  <TopoPSA>
36.26

>  <MMFF94 Energy>
124.29

$$$$
NC(=O)CN1C(=O)COc2ccccc21
Actelion Java MolfileCreator 2.0

  0  0  0  0  0  0              0 V3000
M  V30 BEGIN CTAB
M  V30 COUNTS 25 26 0 0 0
M  V30 BEGIN ATOM
M  V30 1 O -0.4771 -2.5467 -1.4319 0
M  V30 2 C 0.0982 -1.7659 -0.6706 0
M  V30 3 N -0.512 -0.6405 -0.1359 0
M  V30 4 C 1.5754 -1.9171 -0.3246 0
M  V30 5 C 0.2443 0.2553 0.6648 0
M  V30 6 C -1.9323 -0.4258 -0.3902 0
M  V30 7 O 1.9955 -1.4168 0.9341 0
M  V30 8 C 1.4718 -0.1765 1.1898 0
M  V30 9 C -0.1918 1.5517 0.9635 0
M  V30 10 C -2.1386 0.3124 -1.7098 0
M  V30 11 C 2.2152 0.64 2.0426 0
M  V30 12 C 0.5653 2.3796 1.799 0
M  V30 13 O -2.4822 1.4884 -1.7791 0
M  V30 14 N -1.9031 -0.4249 -2.8352 0
M  V30 15 C 1.7621 1.9216 2.3456 0
M  V30 16 H 1.8088 -2.9873 -0.3384 0
M  V30 17 H 2.165 -1.44 -1.1171 0
M  V30 18 H -2.4414 -1.395 -0.4595 0
M  V30 19 H -2.4091 0.1201 0.4297 0
M  V30 20 H -1.113 1.9557 0.5521 0
M  V30 21 H 3.1519 0.2806 2.4597 0
M  V30 22 H 0.2157 3.385 2.0234 0
M  V30 23 H -2.0161 0.0091 -3.7404 0
M  V30 24 H -1.5635 -1.3829 -2.7798 0
M  V30 25 H 2.3443 2.5646 3.0008 0
M  V30 END ATOM
M  V30 BEGIN BOND
M  V30 1 2 1 2
M  V30 2 1 2 3
M  V30 3 1 2 4
M  V30 4 1 3 5
M  V30 5 1 3 6
M  V30 6 1 4 7
M  V30 7 2 5 8
M  V30 8 1 5 9
M  V30 9 1 6 10
M  V30 10 1 8 11
M  V30 11 2 9 12
M  V30 12 2 10 13
M  V30 13 1 10 14
M  V30 14 2 11 15
M  V30 15 1 7 8
M  V30 16 1 12 15
M  V30 17 1 4 16
M  V30 18 1 4 17
M  V30 19 1 6 18
M  V30 20 1 6 19
M  V30 21 1 9 20
M  V30 22 1 11 21
M  V30 23 1 12 22
M  V30 24 1 14 23
M  V30 25 1 14 24
M  V30 26 1 15 25
M  V30 END BOND
M  V30 END CTAB
M  END
>  <level_0>
2285

>  <index>
2285

>  <NO.>
2286

>  <Name>
paraxazone

>  <SMILES>
NC(=O)CN1C(=O)COc2ccccc21

>  <logBB>


>  <Class>
1

>  <MW>
206.07

>  <nHBAcc>
3

>  <nHBDon>
1

>  <SLogP>
-0.1

>  <TopoPSA>
72.63

>  <MMFF94 Energy>
44.537

$$$$
NC(=O)CN1CC(O)CC1=O
Actelion Java MolfileCreator 2.0

  0  0  0  0  0  0              0 V3000
M  V30 BEGIN CTAB
M  V30 COUNTS 21 21 0 0 0
M  V30 BEGIN ATOM
M  V30 1 O 1.9562 0.5474 0.8603 0
M  V30 2 C 0.748 0.6788 0.7486 0
M  V30 3 N 0.0201 0.4662 -0.4049 0
M  V30 4 C -0.2063 1.0943 1.8392 0
M  V30 5 C -1.3963 0.6696 -0.2183 0
M  V30 6 C 0.5974 0.1153 -1.6945 0
M  V30 7 C -1.5547 0.6255 1.2982 0 CFG=1
M  V30 8 C 0.8517 -1.3882 -1.7864 0
M  V30 9 O -1.8195 -0.7079 1.7419 0
M  V30 10 O 0.3966 -2.0958 -2.6791 0
M  V30 11 N 1.6964 -1.8982 -0.8411 0
M  V30 12 H -0.165 2.1839 1.9308 0
M  V30 13 H 0.0634 0.6124 2.7822 0
M  V30 14 H -1.6487 1.653 -0.6271 0
M  V30 15 H -1.9574 -0.1184 -0.7285 0
M  V30 16 H -0.0782 0.4322 -2.4944 0
M  V30 17 H 1.5581 0.6291 -1.8064 0
M  V30 18 H -2.3826 1.2492 1.6466 0
M  V30 19 H -1.1781 -1.3068 1.3172 0
M  V30 20 H 1.9328 -2.8799 -0.8703 0
M  V30 21 H 2.1314 -1.3014 -0.1404 0
M  V30 END ATOM
M  V30 BEGIN BOND
M  V30 1 2 1 2
M  V30 2 1 2 3
M  V30 3 1 2 4
M  V30 4 1 3 5
M  V30 5 1 3 6
M  V30 6 1 4 7
M  V30 7 1 6 8
M  V30 8 1 7 9
M  V30 9 2 8 10
M  V30 10 1 8 11
M  V30 11 1 5 7
M  V30 12 1 4 12
M  V30 13 1 4 13
M  V30 14 1 5 14
M  V30 15 1 5 15
M  V30 16 1 6 16
M  V30 17 1 6 17
M  V30 18 1 7 18
M  V30 19 1 9 19
M  V30 20 1 11 20
M  V30 21 1 11 21
M  V30 END BOND
M  V30 BEGIN COLLECTION
M  V30 MDLV30/STERAC1 ATOMS=(1 7)
M  V30 END COLLECTION
M  V30 END CTAB
M  END
>  <level_0>
2286

>  <index>
2286

>  <NO.>
2287

>  <Name>
oxiracetam

>  <SMILES>
NC(=O)CN1CC(O)CC1=O

>  <logBB>


>  <Class>
1

>  <MW>
158.07

>  <nHBAcc>
3

>  <nHBDon>
2

>  <SLogP>
-1.94

>  <TopoPSA>
83.63

>  <MMFF94 Energy>
1.0156

$$$$
NC(=O)CN1CCCC1=O
Actelion Java MolfileCreator 2.0

  0  0  0  0  0  0              0 V3000
M  V30 BEGIN CTAB
M  V30 COUNTS 20 20 0 0 0
M  V30 BEGIN ATOM
M  V30 1 O 1.014 0.7799 -1.7946 0
M  V30 2 C 0.584 0.9328 -0.6631 0
M  V30 3 N 0.4258 -0.0576 0.2858 0
M  V30 4 C 0.1356 2.2329 -0.0468 0
M  V30 5 C -0.1659 0.4273 1.505 0
M  V30 6 C 0.8232 -1.4471 0.1097 0
M  V30 7 C -0.7528 1.7678 1.1021 0
M  V30 8 C -0.2497 -2.25 -0.6252 0
M  V30 9 O -0.686 -3.3222 -0.217 0
M  V30 10 N -0.6237 -1.7562 -1.8429 0
M  V30 11 H 1.0141 2.7752 0.3159 0
M  V30 12 H -0.4148 2.8424 -0.7672 0
M  V30 13 H -0.9315 -0.2652 1.8665 0
M  V30 14 H 0.6249 0.5348 2.2541 0
M  V30 15 H 1.7374 -1.4799 -0.4926 0
M  V30 16 H 1.019 -1.8934 1.0893 0
M  V30 17 H -1.7773 1.6267 0.7348 0
M  V30 18 H -0.7897 2.4817 1.9298 0
M  V30 19 H -1.3008 -2.2638 -2.3937 0
M  V30 20 H -0.1991 -0.9142 -2.2245 0
M  V30 END ATOM
M  V30 BEGIN BOND
M  V30 1 2 1 2
M  V30 2 1 2 3
M  V30 3 1 2 4
M  V30 4 1 3 5
M  V30 5 1 3 6
M  V30 6 1 4 7
M  V30 7 1 6 8
M  V30 8 2 8 9
M  V30 9 1 8 10
M  V30 10 1 5 7
M  V30 11 1 4 11
M  V30 12 1 4 12
M  V30 13 1 5 13
M  V30 14 1 5 14
M  V30 15 1 6 15
M  V30 16 1 6 16
M  V30 17 1 7 17
M  V30 18 1 7 18
M  V30 19 1 10 19
M  V30 20 1 10 20
M  V30 END BOND
M  V30 END CTAB
M  END
>  <level_0>
2287

>  <index>
2287

>  <NO.>
2288

>  <Name>
piracetam

>  <SMILES>
NC(=O)CN1CCCC1=O

>  <logBB>


>  <Class>
1

>  <MW>
142.07

>  <nHBAcc>
2

>  <nHBDon>
1

>  <SLogP>
-0.91

>  <TopoPSA>
63.4

>  <MMFF94 Energy>
-15.422

$$$$
NC(=O)OCC1[C@H](NC(=O)/C(=N/OCC(=O)O)c2csc(N)n2)C(=O)N1S(=O)(=O)O
Actelion Java MolfileCreator 2.0

  0  0  0  0  0  0              0 V3000
M  V30 BEGIN CTAB
M  V30 COUNTS 44 45 0 0 0
M  V30 BEGIN ATOM
M  V30 1 S -4.1942 0.9857 -0.2463 0
M  V30 2 O -3.47 1.1994 -1.4837 0
M  V30 3 O -4.7009 2.0967 0.5212 0
M  V30 4 O -5.419 -6.0E-4 -0.5801 0
M  V30 5 N -3.2349 0.0836 0.7553 0
M  V30 6 C -2.7626 -1.1667 0.3565 0
M  V30 7 C -1.949 0.4796 1.3845 0
M  V30 8 O -3.3217 -1.9579 -0.3661 0
M  V30 9 C -1.3706 -0.9377 1.0763 0 CFG=2
M  V30 10 C -2.1075 0.8307 2.856 0
M  V30 11 N -0.2188 -0.9037 0.1502 0
M  V30 12 O -0.7897 0.9128 3.4121 0
M  V30 13 C 1.0931 -0.7391 0.5477 0
M  V30 14 C -0.7478 1.0168 4.7569 0
M  V30 15 O 1.5274 -0.8383 1.6807 0
M  V30 16 C 1.9709 -0.3463 -0.6451 0
M  V30 17 O -1.7088 1.0786 5.5043 0
M  V30 18 N 0.5359 1.0277 5.1714 0
M  V30 19 N 1.5415 0.7529 -1.2003 0
M  V30 20 C 3.0285 -1.2326 -1.1241 0
M  V30 21 O 1.917 0.9134 -2.5363 0
M  V30 22 N 3.8356 -0.9247 -2.2195 0
M  V30 23 C 3.3482 -2.4443 -0.5328 0
M  V30 24 C 0.8645 1.6175 -3.1998 0
M  V30 25 C 4.7102 -1.8706 -2.4432 0
M  V30 26 S 4.6427 -3.1983 -1.3633 0
M  V30 27 C -0.5391 1.0693 -2.9175 0
M  V30 28 N 5.6008 -1.8221 -3.4369 0
M  V30 29 O -0.8257 -0.0091 -2.4083 0
M  V30 30 O -1.5098 1.9526 -3.2383 0
M  V30 31 H -5.0686 -0.8334 -0.9681 0
M  V30 32 H -1.4603 1.2878 0.8234 0
M  V30 33 H -1.2149 -1.5999 1.9333 0
M  V30 34 H -2.6883 0.0614 3.3798 0
M  V30 35 H -2.6053 1.8007 2.9655 0
M  V30 36 H -0.3983 -0.7581 -0.8533 0
M  V30 37 H 0.7375 1.0962 6.1571 0
M  V30 38 H 1.2821 0.938 4.4976 0
M  V30 39 H 2.9049 -2.9196 0.3312 0
M  V30 40 H 1.0456 1.5573 -4.2766 0
M  V30 41 H 0.9081 2.666 -2.8856 0
M  V30 42 H 6.2761 -2.5558 -3.5971 0
M  V30 43 H 5.6182 -1.0185 -4.0515 0
M  V30 44 H -2.3405 1.5948 -2.8303 0
M  V30 END ATOM
M  V30 BEGIN BOND
M  V30 1 2 1 2
M  V30 2 2 1 3
M  V30 3 1 1 4
M  V30 4 1 1 5
M  V30 5 1 5 6
M  V30 6 1 5 7
M  V30 7 2 6 8
M  V30 8 1 6 9
M  V30 9 1 7 10
M  V30 10 1 9 11
M  V30 11 1 10 12
M  V30 12 1 11 13
M  V30 13 1 12 14
M  V30 14 2 13 15
M  V30 15 1 13 16
M  V30 16 2 14 17
M  V30 17 1 14 18
M  V30 18 2 16 19
M  V30 19 1 16 20
M  V30 20 1 19 21
M  V30 21 1 20 22
M  V30 22 2 20 23
M  V30 23 1 21 24
M  V30 24 2 22 25
M  V30 25 1 23 26
M  V30 26 1 24 27
M  V30 27 1 25 28
M  V30 28 2 27 29
M  V30 29 1 27 30
M  V30 30 1 7 9
M  V30 31 1 25 26
M  V30 32 1 4 31
M  V30 33 1 7 32
M  V30 34 1 9 33
M  V30 35 1 10 34
M  V30 36 1 10 35
M  V30 37 1 11 36
M  V30 38 1 18 37
M  V30 39 1 18 38
M  V30 40 1 23 39
M  V30 41 1 24 40
M  V30 42 1 24 41
M  V30 43 1 28 42
M  V30 44 1 28 43
M  V30 45 1 30 44
M  V30 END BOND
M  V30 BEGIN COLLECTION
M  V30 MDLV30/STEABS ATOMS=(1 9)
M  V30 END COLLECTION
M  V30 END CTAB
M  END
>  <level_0>
2295

>  <index>
2295

>  <NO.>
2296

>  <Name>
carumonam

>  <SMILES>
NC(=O)OCC1[C@H](NC(=O)/C(=N/OCC(=O)O)c2csc(N)n2)C(=O)N1S(=O)(=O)O

>  <logBB>


>  <Class>
-1

>  <MW>
466.02

>  <nHBAcc>
12

>  <nHBDon>
5

>  <SLogP>
-2.88

>  <TopoPSA>
253.9

>  <MMFF94 Energy>
-195.81

$$$$
NC(=O)c1cnccn1
Actelion Java MolfileCreator 2.0

  0  0  0  0  0  0              0 V3000
M  V30 BEGIN CTAB
M  V30 COUNTS 14 14 0 0 0
M  V30 BEGIN ATOM
M  V30 1 O -1.4122 0.8628 -2.1975 0
M  V30 2 C -0.3889 0.3972 -1.7138 0
M  V30 3 N 0.6898 0.0596 -2.4861 0
M  V30 4 C -0.2299 0.1593 -0.2532 0
M  V30 5 N 0.9578 -0.3647 0.1719 0
M  V30 6 C -1.2658 0.4684 0.6154 0
M  V30 7 C 1.0435 -0.5586 1.5089 0
M  V30 8 N -1.1682 0.2694 1.9556 0
M  V30 9 C 0.0077 -0.2498 2.3791 0
M  V30 10 H 1.5214 -0.3237 -2.0505 0
M  V30 11 H 0.6512 0.1945 -3.4859 0
M  V30 12 H -2.2037 0.8844 0.2627 0
M  V30 13 H 1.9775 -0.9741 1.8715 0
M  V30 14 H 0.0971 -0.4131 3.4477 0
M  V30 END ATOM
M  V30 BEGIN BOND
M  V30 1 2 1 2
M  V30 2 1 2 3
M  V30 3 1 2 4
M  V30 4 2 4 5
M  V30 5 1 4 6
M  V30 6 1 5 7
M  V30 7 2 6 8
M  V30 8 2 7 9
M  V30 9 1 8 9
M  V30 10 1 3 10
M  V30 11 1 3 11
M  V30 12 1 6 12
M  V30 13 1 7 13
M  V30 14 1 9 14
M  V30 END BOND
M  V30 END CTAB
M  END
>  <level_0>
2300

>  <index>
2300

>  <NO.>
2301

>  <Name>
m-xylene

>  <SMILES>
NC(=O)c1cnccn1

>  <logBB>


>  <Class>
1

>  <MW>
123.04

>  <nHBAcc>
3

>  <nHBDon>
1

>  <SLogP>
-0.42

>  <TopoPSA>
68.87

>  <MMFF94 Energy>
67.467

$$$$
NC(CO)(CO)CO
Actelion Java MolfileCreator 2.0

  0  0  0  0  0  0              0 V3000
M  V30 BEGIN CTAB
M  V30 COUNTS 19 18 0 0 0
M  V30 BEGIN ATOM
M  V30 1 O -0.9162 2.1389 0.9926 0
M  V30 2 C -0.0103 1.5881 0.0327 0
M  V30 3 C -0.054 0.0452 0.098 0
M  V30 4 N 0.1989 -0.3491 1.5212 0
M  V30 5 C -1.4539 -0.4636 -0.3191 0
M  V30 6 C 1.0338 -0.568 -0.8156 0
M  V30 7 O -1.5018 -1.893 -0.27 0
M  V30 8 O 2.3352 -0.175 -0.3702 0
M  V30 9 H -0.7657 1.5901 1.7925 0
M  V30 10 H -0.2992 1.9546 -0.9577 0
M  V30 11 H 0.987 1.9788 0.2622 0
M  V30 12 H 0.011 -1.3546 1.58 0
M  V30 13 H 1.2122 -0.2665 1.6617 0
M  V30 14 H -1.6917 -0.1542 -1.3426 0
M  V30 15 H -2.233 -0.0766 0.3477 0
M  V30 16 H 0.9987 -1.6626 -0.8005 0
M  V30 17 H 0.909 -0.2294 -1.8499 0
M  V30 18 H -2.4395 -2.1403 -0.3598 0
M  V30 19 H 2.9769 -0.6254 -0.9474 0
M  V30 END ATOM
M  V30 BEGIN BOND
M  V30 1 1 1 2
M  V30 2 1 2 3
M  V30 3 1 3 4
M  V30 4 1 3 5
M  V30 5 1 3 6
M  V30 6 1 5 7
M  V30 7 1 6 8
M  V30 8 1 1 9
M  V30 9 1 2 10
M  V30 10 1 2 11
M  V30 11 1 4 12
M  V30 12 1 4 13
M  V30 13 1 5 14
M  V30 14 1 5 15
M  V30 15 1 6 16
M  V30 16 1 6 17
M  V30 17 1 7 18
M  V30 18 1 8 19
M  V30 END BOND
M  V30 END CTAB
M  END
>  <level_0>
2303

>  <index>
2303

>  <NO.>
2304

>  <Name>
trometamol

>  <SMILES>
NC(CO)(CO)CO

>  <logBB>


>  <Class>
-1

>  <MW>
121.07

>  <nHBAcc>
4

>  <nHBDon>
4

>  <SLogP>
-2.34

>  <TopoPSA>
86.71

>  <MMFF94 Energy>
58.878

$$$$
NC(CO)C(=O)NNCc1ccc(O)c(O)c1O
Actelion Java MolfileCreator 2.0

  0  0  0  0  0  0              0 V3000
M  V30 BEGIN CTAB
M  V30 COUNTS 33 33 0 0 0
M  V30 BEGIN ATOM
M  V30 1 O 1.794 -0.7796 -1.872 0
M  V30 2 C 0.6745 -1.2431 -2.0811 0
M  V30 3 N -0.4768 -0.777 -1.4608 0
M  V30 4 C 0.4041 -2.4374 -3.0045 0 CFG=1
M  V30 5 N -0.4174 0.3034 -0.5571 0
M  V30 6 N -0.9093 -2.2793 -3.6974 0
M  V30 7 C 1.5509 -2.6118 -4.0078 0
M  V30 8 C -0.6645 -0.1562 0.8219 0
M  V30 9 O 1.2159 -3.6378 -4.9476 0
M  V30 10 C -0.6339 0.9808 1.8183 0
M  V30 11 C -0.0601 0.8185 3.0818 0
M  V30 12 C -1.2463 2.218 1.5274 0
M  V30 13 O 0.5131 -0.3702 3.4423 0
M  V30 14 C -0.0649 1.8609 4.0051 0
M  V30 15 C -1.2509 3.2679 2.4559 0
M  V30 16 O 0.5156 1.6634 5.231 0
M  V30 17 C -0.6528 3.0806 3.6947 0
M  V30 18 O -0.6239 4.0634 4.6442 0
M  V30 19 H -1.3718 -1.1578 -1.7741 0
M  V30 20 H 0.3281 -3.3338 -2.3778 0
M  V30 21 H 0.5448 0.6676 -0.5831 0
M  V30 22 H -0.9762 -3.0885 -4.3274 0
M  V30 23 H -0.8281 -1.4896 -4.3422 0
M  V30 24 H 2.4741 -2.9002 -3.4937 0
M  V30 25 H 1.7369 -1.6868 -4.5651 0
M  V30 26 H -1.6508 -0.6324 0.886 0
M  V30 27 H 0.0882 -0.9113 1.0773 0
M  V30 28 H 1.9958 -3.7572 -5.5182 0
M  V30 29 H -1.7264 2.3675 0.5608 0
M  V30 30 H 0.8438 -0.2168 4.3512 0
M  V30 31 H -1.7254 4.2072 2.1901 0
M  V30 32 H 0.3908 2.5189 5.6916 0
M  V30 33 H -1.0633 4.8499 4.276 0
M  V30 END ATOM
M  V30 BEGIN BOND
M  V30 1 2 1 2
M  V30 2 1 2 3
M  V30 3 1 2 4
M  V30 4 1 3 5
M  V30 5 1 4 6
M  V30 6 1 4 7
M  V30 7 1 5 8
M  V30 8 1 7 9
M  V30 9 1 8 10
M  V30 10 2 10 11
M  V30 11 1 10 12
M  V30 12 1 11 13
M  V30 13 1 11 14
M  V30 14 2 12 15
M  V30 15 1 14 16
M  V30 16 2 14 17
M  V30 17 1 17 18
M  V30 18 1 15 17
M  V30 19 1 3 19
M  V30 20 1 4 20
M  V30 21 1 5 21
M  V30 22 1 6 22
M  V30 23 1 6 23
M  V30 24 1 7 24
M  V30 25 1 7 25
M  V30 26 1 8 26
M  V30 27 1 8 27
M  V30 28 1 9 28
M  V30 29 1 12 29
M  V30 30 1 13 30
M  V30 31 1 15 31
M  V30 32 1 16 32
M  V30 33 1 18 33
M  V30 END BOND
M  V30 BEGIN COLLECTION
M  V30 MDLV30/STERAC1 ATOMS=(1 4)
M  V30 END COLLECTION
M  V30 END CTAB
M  END
>  <level_0>
2304

>  <index>
2304

>  <NO.>
2305

>  <Name>
benserazide

>  <SMILES>
NC(CO)C(=O)NNCc1ccc(O)c(O)c1O

>  <logBB>


>  <Class>
-1

>  <MW>
257.1

>  <nHBAcc>
7

>  <nHBDon>
7

>  <SLogP>
-1.76

>  <TopoPSA>
148.07

>  <MMFF94 Energy>
102.21

$$$$
NC1CONC1=O
Actelion Java MolfileCreator 2.0

  0  0  0  0  0  0              0 V3000
M  V30 BEGIN CTAB
M  V30 COUNTS 13 13 0 0 0
M  V30 BEGIN ATOM
M  V30 1 O 0.3916 2.195 -0.1566 0
M  V30 2 C 0.4431 0.9917 -0.3598 0
M  V30 3 N 0.6996 0.3859 -1.5629 0
M  V30 4 C 0.248 -0.101 0.6649 0 CFG=1
M  V30 5 O 0.5987 -1.0213 -1.4797 0
M  V30 6 N -0.7803 0.2444 1.6594 0
M  V30 7 C -0.1124 -1.2607 -0.2545 0
M  V30 8 H 0.8421 0.8463 -2.4517 0
M  V30 9 H 1.2116 -0.277 1.1555 0
M  V30 10 H -0.4892 1.1182 2.1078 0
M  V30 11 H -1.6447 0.4914 1.1741 0
M  V30 12 H 0.1878 -2.2259 0.1638 0
M  V30 13 H -1.1834 -1.2969 -0.4876 0
M  V30 END ATOM
M  V30 BEGIN BOND
M  V30 1 2 1 2
M  V30 2 1 2 3
M  V30 3 1 2 4
M  V30 4 1 3 5
M  V30 5 1 4 6
M  V30 6 1 4 7
M  V30 7 1 5 7
M  V30 8 1 3 8
M  V30 9 1 4 9
M  V30 10 1 6 10
M  V30 11 1 6 11
M  V30 12 1 7 12
M  V30 13 1 7 13
M  V30 END BOND
M  V30 BEGIN COLLECTION
M  V30 MDLV30/STERAC1 ATOMS=(1 4)
M  V30 END COLLECTION
M  V30 END CTAB
M  END
>  <level_0>
2315

>  <index>
2315

>  <NO.>
2316

>  <Name>
dl-cycloserine

>  <SMILES>
NC1CONC1=O

>  <logBB>


>  <Class>
1

>  <MW>
102.04

>  <nHBAcc>
3

>  <nHBDon>
2

>  <SLogP>
-1.62

>  <TopoPSA>
64.35

>  <MMFF94 Energy>
59.217

$$$$
NCC1CCC(N)C(OC2C(N)CC(N)C(OC3OC(CO)C(O)C(N)C3O)C2O)O1
Actelion Java MolfileCreator 2.0

  0  0  0  0  0  0              0 V3000
M  V30 BEGIN CTAB
M  V30 COUNTS 68 70 0 0 0
M  V30 BEGIN ATOM
M  V30 1 O -0.0791 -1.9797 -2.376 0
M  V30 2 C 0.922 -1.3246 -3.1606 0
M  V30 3 C 0.3021 -3.283 -1.9209 0
M  V30 4 O 0.4008 -0.056 -3.5788 0
M  V30 5 C 2.3041 -1.2556 -2.4645 0
M  V30 6 C 1.5932 -3.228 -1.0743 0
M  V30 7 C -0.886 -3.8833 -1.1634 0
M  V30 8 C 0.3494 1.0094 -2.6079 0
M  V30 9 O 3.3197 -0.7606 -3.3489 0
M  V30 10 C 2.7158 -2.6538 -1.9603 0
M  V30 11 O 1.4876 -2.3654 0.0692 0
M  V30 12 O -0.5728 -5.1859 -0.6903 0
M  V30 13 C -0.4525 0.6464 -1.341 0
M  V30 14 C -0.2982 2.2333 -3.3118 0
M  V30 15 N 4.0084 -2.5343 -1.2368 0
M  V30 16 O -1.7478 0.1501 -1.7097 0
M  V30 17 C -0.5771 1.8422 -0.3785 0
M  V30 18 N 0.477 2.6351 -4.5018 0
M  V30 19 C -0.4327 3.4267 -2.358 0
M  V30 20 O -1.4127 1.4922 0.7432 0
M  V30 21 C -1.2174 3.0511 -1.0955 0
M  V30 22 C -0.7161 1.3204 1.9785 0
M  V30 23 N -1.2634 4.2086 -0.1795 0
M  V30 24 O -1.685 1.383 3.0338 0
M  V30 25 C 0.0126 -0.0568 2.024 0
M  V30 26 C -1.0803 1.3259 4.3338 0
M  V30 27 N -0.9068 -1.1768 1.6781 0
M  V30 28 C 0.6219 -0.2823 3.4112 0
M  V30 29 C -0.3821 -0.0218 4.532 0
M  V30 30 C -2.1826 1.5285 5.3927 0
M  V30 31 N -2.9058 2.7907 5.197 0
M  V30 32 H 1.0322 -1.8962 -4.0903 0
M  V30 33 H 0.4887 -3.9169 -2.7987 0
M  V30 34 H 2.2683 -0.564 -1.616 0
M  V30 35 H 1.8701 -4.226 -0.7168 0
M  V30 36 H -1.7539 -3.9505 -1.8292 0
M  V30 37 H -1.1831 -3.2549 -0.319 0
M  V30 38 H 1.375 1.282 -2.3301 0
M  V30 39 H 4.1613 -1.0232 -2.9195 0
M  V30 40 H 2.8933 -3.3116 -2.8203 0
M  V30 41 H 0.6638 -2.5628 0.5604 0
M  V30 42 H -1.3689 -5.5199 -0.2379 0
M  V30 43 H 0.0387 -0.1675 -0.8092 0
M  V30 44 H -1.2944 1.9504 -3.6753 0
M  V30 45 H 3.7946 -2.0768 -0.3415 0
M  V30 46 H 4.3095 -3.4706 -0.9587 0
M  V30 47 H -1.5662 -0.6016 -2.3121 0
M  V30 48 H 0.4283 2.1243 -0.0354 0
M  V30 49 H 1.4313 2.8686 -4.2279 0
M  V30 50 H 0.5774 1.7981 -5.085 0
M  V30 51 H 0.566 3.7908 -2.0784 0
M  V30 52 H -0.9367 4.2558 -2.8726 0
M  V30 53 H -2.2542 2.8095 -1.3629 0
M  V30 54 H -0.0086 2.1483 2.1162 0
M  V30 55 H -1.7979 4.9561 -0.6236 0
M  V30 56 H -1.8183 3.9222 0.6326 0
M  V30 57 H 0.8176 -0.062 1.2833 0
M  V30 58 H -0.3519 2.1435 4.4195 0
M  V30 59 H -1.6584 -1.1697 2.3759 0
M  V30 60 H -1.4192 -0.8648 0.8391 0
M  V30 61 H 1.0276 -1.2974 3.4992 0
M  V30 62 H 1.4714 0.4019 3.5355 0
M  V30 63 H 0.128 -0.0484 5.5017 0
M  V30 64 H -1.1251 -0.8287 4.5375 0
M  V30 65 H -2.9156 0.7162 5.3304 0
M  V30 66 H -1.7511 1.5139 6.3991 0
M  V30 67 H -3.2672 2.7781 4.2379 0
M  V30 68 H -2.245 3.5663 5.2111 0
M  V30 END ATOM
M  V30 BEGIN BOND
M  V30 1 1 1 2
M  V30 2 1 1 3
M  V30 3 1 2 4
M  V30 4 1 2 5
M  V30 5 1 3 6
M  V30 6 1 3 7
M  V30 7 1 4 8
M  V30 8 1 5 9
M  V30 9 1 5 10
M  V30 10 1 6 11
M  V30 11 1 7 12
M  V30 12 1 8 13
M  V30 13 1 8 14
M  V30 14 1 10 15
M  V30 15 1 13 16
M  V30 16 1 13 17
M  V30 17 1 14 18
M  V30 18 1 14 19
M  V30 19 1 17 20
M  V30 20 1 17 21
M  V30 21 1 20 22
M  V30 22 1 21 23
M  V30 23 1 22 24
M  V30 24 1 22 25
M  V30 25 1 24 26
M  V30 26 1 25 27
M  V30 27 1 25 28
M  V30 28 1 26 29
M  V30 29 1 26 30
M  V30 30 1 30 31
M  V30 31 1 6 10
M  V30 32 1 19 21
M  V30 33 1 28 29
M  V30 34 1 2 32
M  V30 35 1 3 33
M  V30 36 1 5 34
M  V30 37 1 6 35
M  V30 38 1 7 36
M  V30 39 1 7 37
M  V30 40 1 8 38
M  V30 41 1 9 39
M  V30 42 1 10 40
M  V30 43 1 11 41
M  V30 44 1 12 42
M  V30 45 1 13 43
M  V30 46 1 14 44
M  V30 47 1 15 45
M  V30 48 1 15 46
M  V30 49 1 16 47
M  V30 50 1 17 48
M  V30 51 1 18 49
M  V30 52 1 18 50
M  V30 53 1 19 51
M  V30 54 1 19 52
M  V30 55 1 21 53
M  V30 56 1 22 54
M  V30 57 1 23 55
M  V30 58 1 23 56
M  V30 59 1 25 57
M  V30 60 1 26 58
M  V30 61 1 27 59
M  V30 62 1 27 60
M  V30 63 1 28 61
M  V30 64 1 28 62
M  V30 65 1 29 63
M  V30 66 1 29 64
M  V30 67 1 30 65
M  V30 68 1 30 66
M  V30 69 1 31 67
M  V30 70 1 31 68
M  V30 END BOND
M  V30 END CTAB
M  END
>  <level_0>
2320

>  <index>
2320

>  <NO.>
2321

>  <Name>
dibekacin

>  <SMILES>
NCC1CCC(N)C(OC2C(N)CC(N)C(OC3OC(CO)C(O)C(N)C3O)C2O)O1

>  <logBB>


>  <Class>
-1

>  <MW>
451.26

>  <nHBAcc>
13

>  <nHBDon>
9

>  <SLogP>
-5.27

>  <TopoPSA>
247.94

>  <MMFF94 Energy>
229.07

$$$$
NCC1OC(OC2C(N)CC(N)C(OC3OC(CO)C(O)C(N)C3O)C2O)C(N)C(O)C1O
Actelion Java MolfileCreator 2.0

  0  0  0  0  0  0              0 V3000
M  V30 BEGIN CTAB
M  V30 COUNTS 70 72 0 0 0
M  V30 BEGIN ATOM
M  V30 1 O -0.7131 3.9671 2.7757 0
M  V30 2 C 0.1251 2.9988 2.1221 0
M  V30 3 C -1.9332 4.228 2.06 0
M  V30 4 O -0.5473 1.7395 2.1343 0
M  V30 5 C 0.502 3.4501 0.6934 0
M  V30 6 C -1.6521 4.775 0.6526 0
M  V30 7 C -2.7273 5.234 2.9013 0
M  V30 8 C 0.3381 0.6045 2.0421 0
M  V30 9 O 1.3464 4.6166 0.7251 0
M  V30 10 C -0.7587 3.7819 -0.1184 0
M  V30 11 O -2.8638 4.9671 -0.0912 0
M  V30 12 O -2.9559 4.7023 4.2076 0
M  V30 13 C -0.1641 -0.3011 0.8992 0
M  V30 14 C 0.3168 -0.1414 3.3986 0
M  V30 15 N -0.3741 4.3678 -1.4339 0
M  V30 16 O -0.0154 0.41 -0.3478 0
M  V30 17 C 0.6281 -1.6253 0.8434 0
M  V30 18 N 0.8919 0.6927 4.4703 0
M  V30 19 C 1.0914 -1.4618 3.3265 0
M  V30 20 O 0.064 -2.5036 -0.1507 0
M  V30 21 C 0.5855 -2.3656 2.2003 0
M  V30 22 C 0.6511 -2.3407 -1.4435 0
M  V30 23 N -0.772 -2.8491 2.5069 0
M  V30 24 O 1.5559 -3.4204 -1.6676 0
M  V30 25 C -0.4982 -2.3713 -2.4795 0
M  V30 26 C 2.2038 -3.3331 -2.9502 0
M  V30 27 N -1.4841 -1.2774 -2.2719 0
M  V30 28 C 0.0999 -2.3178 -3.8936 0
M  V30 29 C 1.1671 -3.4068 -4.0826 0
M  V30 30 C 3.2635 -4.4547 -3.0283 0
M  V30 31 O -0.9245 -2.4873 -4.8911 0
M  V30 32 O 1.7868 -3.2347 -5.3585 0
M  V30 33 N 2.7393 -5.7922 -2.7221 0
M  V30 34 H 1.0307 2.9506 2.7373 0
M  V30 35 H -2.5199 3.3016 2.0102 0
M  V30 36 H 1.0751 2.6694 0.1841 0
M  V30 37 H -1.1389 5.7435 0.7227 0
M  V30 38 H -2.1697 6.1682 3.026 0
M  V30 39 H -3.6992 5.4599 2.4536 0
M  V30 40 H 1.3594 0.9336 1.8053 0
M  V30 41 H 1.2546 4.9986 -0.1739 0
M  V30 42 H -1.3348 2.8703 -0.3199 0
M  V30 43 H -3.2188 5.8403 0.1513 0
M  V30 44 H -2.0987 4.3175 4.4776 0
M  V30 45 H -1.2396 -0.4871 1.0102 0
M  V30 46 H -0.7266 -0.3358 3.6779 0
M  V30 47 H -1.2466 4.6738 -1.8772 0
M  V30 48 H -0.0264 3.6097 -2.0245 0
M  V30 49 H -0.6232 -0.0227 -0.9883 0
M  V30 50 H 1.6798 -1.4256 0.5958 0
M  V30 51 H 0.7686 0.2179 5.3649 0
M  V30 52 H 0.3293 1.5448 4.5391 0
M  V30 53 H 2.1577 -1.2565 3.1592 0
M  V30 54 H 1.0274 -1.991 4.2867 0
M  V30 55 H 1.2286 -3.2514 2.1282 0
M  V30 56 H 1.2054 -1.397 -1.5232 0
M  V30 57 H -0.726 -3.5183 3.2758 0
M  V30 58 H -1.095 -3.381 1.6934 0
M  V30 59 H -1.0541 -3.313 -2.3755 0
M  V30 60 H 2.7462 -2.3795 -3.009 0
M  V30 61 H -2.1094 -1.5653 -1.5129 0
M  V30 62 H -2.0734 -1.2204 -3.1088 0
M  V30 63 H 0.5458 -1.3334 -4.0847 0
M  V30 64 H 0.6723 -4.3852 -4.093 0
M  V30 65 H 4.0404 -4.2454 -2.2838 0
M  V30 66 H 3.7512 -4.4664 -4.0083 0
M  V30 67 H -1.4149 -3.3041 -4.689 0
M  V30 68 H 1.0714 -3.0107 -5.987 0
M  V30 69 H 2.0978 -6.0873 -3.4545 0
M  V30 70 H 2.1848 -5.7171 -1.8659 0
M  V30 END ATOM
M  V30 BEGIN BOND
M  V30 1 1 1 2
M  V30 2 1 1 3
M  V30 3 1 2 4
M  V30 4 1 2 5
M  V30 5 1 3 6
M  V30 6 1 3 7
M  V30 7 1 4 8
M  V30 8 1 5 9
M  V30 9 1 5 10
M  V30 10 1 6 11
M  V30 11 1 7 12
M  V30 12 1 8 13
M  V30 13 1 8 14
M  V30 14 1 10 15
M  V30 15 1 13 16
M  V30 16 1 13 17
M  V30 17 1 14 18
M  V30 18 1 14 19
M  V30 19 1 17 20
M  V30 20 1 17 21
M  V30 21 1 20 22
M  V30 22 1 21 23
M  V30 23 1 22 24
M  V30 24 1 22 25
M  V30 25 1 24 26
M  V30 26 1 25 27
M  V30 27 1 25 28
M  V30 28 1 26 29
M  V30 29 1 26 30
M  V30 30 1 28 31
M  V30 31 1 29 32
M  V30 32 1 30 33
M  V30 33 1 6 10
M  V30 34 1 19 21
M  V30 35 1 28 29
M  V30 36 1 2 34
M  V30 37 1 3 35
M  V30 38 1 5 36
M  V30 39 1 6 37
M  V30 40 1 7 38
M  V30 41 1 7 39
M  V30 42 1 8 40
M  V30 43 1 9 41
M  V30 44 1 10 42
M  V30 45 1 11 43
M  V30 46 1 12 44
M  V30 47 1 13 45
M  V30 48 1 14 46
M  V30 49 1 15 47
M  V30 50 1 15 48
M  V30 51 1 16 49
M  V30 52 1 17 50
M  V30 53 1 18 51
M  V30 54 1 18 52
M  V30 55 1 19 53
M  V30 56 1 19 54
M  V30 57 1 21 55
M  V30 58 1 22 56
M  V30 59 1 23 57
M  V30 60 1 23 58
M  V30 61 1 25 59
M  V30 62 1 26 60
M  V30 63 1 27 61
M  V30 64 1 27 62
M  V30 65 1 28 63
M  V30 66 1 29 64
M  V30 67 1 30 65
M  V30 68 1 30 66
M  V30 69 1 31 67
M  V30 70 1 32 68
M  V30 71 1 33 69
M  V30 72 1 33 70
M  V30 END BOND
M  V30 END CTAB
M  END
>  <level_0>
2321

>  <index>
2321

>  <NO.>
2322

>  <Name>
kanamycin b

>  <SMILES>
NCC1OC(OC2C(N)CC(N)C(OC3OC(CO)C(O)C(N)C3O)C2O)C(N)C(O)C1O

>  <logBB>


>  <Class>
-1

>  <MW>
483.25

>  <nHBAcc>
15

>  <nHBDon>
11

>  <SLogP>
-7.33

>  <TopoPSA>
288.4

>  <MMFF94 Energy>
280.02

$$$$
NCC1OC(OC2C(N)CC(N)C(OC3OC(CO)C(O)C(N)C3O)C2O)C(O)C(O)C1O
Actelion Java MolfileCreator 2.0

  0  0  0  0  0  0              0 V3000
M  V30 BEGIN CTAB
M  V30 COUNTS 69 71 0 0 0
M  V30 BEGIN ATOM
M  V30 1 O -4.2929 -1.0322 0.6351 0
M  V30 2 C -3.0601 -0.3888 0.2992 0
M  V30 3 C -5.2398 -1.0126 -0.4422 0
M  V30 4 O -2.2333 -0.4551 1.4643 0
M  V30 5 C -2.384 -1.1121 -0.8893 0
M  V30 6 C -4.7051 -1.7979 -1.6543 0
M  V30 7 C -6.5615 -1.5885 0.0728 0
M  V30 8 C -1.1129 0.4491 1.4447 0
M  V30 9 O -1.9589 -2.4369 -0.4859 0
M  V30 10 C -3.3439 -1.2193 -2.0929 0
M  V30 11 O -4.5217 -3.1856 -1.3184 0
M  V30 12 O -7.5926 -1.4089 -0.8932 0
M  V30 13 C 0.1489 -0.3698 1.7847 0
M  V30 14 C -1.3443 1.5582 2.4949 0
M  V30 15 N -2.7474 -2.0809 -3.1463 0
M  V30 16 O 0.3833 -1.3348 0.7337 0
M  V30 17 C 1.3913 0.5311 1.9261 0
M  V30 18 N -2.5341 2.366 2.1568 0
M  V30 19 C -0.1161 2.4672 2.6102 0
M  V30 20 O 1.6759 1.1161 0.6449 0
M  V30 21 C 1.1624 1.6774 2.9388 0
M  V30 22 C 2.7383 0.4515 -0.0524 0
M  V30 23 N 1.0962 1.172 4.3189 0
M  V30 24 O 3.9354 1.1847 0.1721 0
M  V30 25 C 2.3486 0.4214 -1.5433 0
M  V30 26 C 5.0626 0.6256 -0.5286 0
M  V30 27 O 1.2165 -0.4455 -1.7835 0
M  V30 28 C 3.5128 -0.0889 -2.3948 0
M  V30 29 C 4.8242 0.6273 -2.0559 0
M  V30 30 C 6.296 1.4498 -0.1058 0
M  V30 31 O 3.6626 -1.5026 -2.2003 0
M  V30 32 O 4.7807 1.9683 -2.5615 0
M  V30 33 N 7.5642 0.977 -0.6676 0
M  V30 34 H -3.2767 0.657 0.0496 0
M  V30 35 H -5.412 0.0303 -0.7409 0
M  V30 36 H -1.4761 -0.5834 -1.1921 0
M  V30 37 H -5.4225 -1.7532 -2.4825 0
M  V30 38 H -6.8603 -1.0762 0.9942 0
M  V30 39 H -6.4699 -2.6535 0.3115 0
M  V30 40 H -0.9987 0.8929 0.4468 0
M  V30 41 H -2.7826 -2.8856 -0.1874 0
M  V30 42 H -3.5107 -0.2182 -2.5092 0
M  V30 43 H -4.2018 -3.5884 -2.1511 0
M  V30 44 H -8.379 -1.8659 -0.5461 0
M  V30 45 H -0.0103 -0.9441 2.7052 0
M  V30 46 H -1.5523 1.091 3.4661 0
M  V30 47 H -1.9923 -1.5576 -3.5975 0
M  V30 48 H -2.237 -2.8278 -2.6559 0
M  V30 49 H -0.437 -1.8788 0.6781 0
M  V30 50 H 2.2498 -0.0674 2.2587 0
M  V30 51 H -2.6734 3.0671 2.8851 0
M  V30 52 H -3.3478 1.7487 2.2193 0
M  V30 53 H 0.0329 3.0087 1.666 0
M  V30 54 H -0.2853 3.236 3.3763 0
M  V30 55 H 2.0074 2.3747 2.8754 0
M  V30 56 H 2.86 -0.5768 0.3126 0
M  V30 57 H 1.9897 0.7394 4.5615 0
M  V30 58 H 0.9972 1.9605 4.9607 0
M  V30 59 H 2.0622 1.4288 -1.8679 0
M  V30 60 H 5.1988 -0.4061 -0.1775 0
M  V30 61 H 0.8599 -0.692 -0.8985 0
M  V30 62 H 3.2661 0.0517 -3.454 0
M  V30 63 H 5.66 0.1162 -2.5478 0
M  V30 64 H 6.3717 1.4197 0.9883 0
M  V30 65 H 6.1538 2.5076 -0.3582 0
M  V30 66 H 2.7561 -1.8656 -2.2857 0
M  V30 67 H 4.7452 1.9126 -3.5326 0
M  V30 68 H 7.5858 1.2091 -1.6612 0
M  V30 69 H 8.3227 1.518 -0.2515 0
M  V30 END ATOM
M  V30 BEGIN BOND
M  V30 1 1 1 2
M  V30 2 1 1 3
M  V30 3 1 2 4
M  V30 4 1 2 5
M  V30 5 1 3 6
M  V30 6 1 3 7
M  V30 7 1 4 8
M  V30 8 1 5 9
M  V30 9 1 5 10
M  V30 10 1 6 11
M  V30 11 1 7 12
M  V30 12 1 8 13
M  V30 13 1 8 14
M  V30 14 1 10 15
M  V30 15 1 13 16
M  V30 16 1 13 17
M  V30 17 1 14 18
M  V30 18 1 14 19
M  V30 19 1 17 20
M  V30 20 1 17 21
M  V30 21 1 20 22
M  V30 22 1 21 23
M  V30 23 1 22 24
M  V30 24 1 22 25
M  V30 25 1 24 26
M  V30 26 1 25 27
M  V30 27 1 25 28
M  V30 28 1 26 29
M  V30 29 1 26 30
M  V30 30 1 28 31
M  V30 31 1 29 32
M  V30 32 1 30 33
M  V30 33 1 6 10
M  V30 34 1 19 21
M  V30 35 1 28 29
M  V30 36 1 2 34
M  V30 37 1 3 35
M  V30 38 1 5 36
M  V30 39 1 6 37
M  V30 40 1 7 38
M  V30 41 1 7 39
M  V30 42 1 8 40
M  V30 43 1 9 41
M  V30 44 1 10 42
M  V30 45 1 11 43
M  V30 46 1 12 44
M  V30 47 1 13 45
M  V30 48 1 14 46
M  V30 49 1 15 47
M  V30 50 1 15 48
M  V30 51 1 16 49
M  V30 52 1 17 50
M  V30 53 1 18 51
M  V30 54 1 18 52
M  V30 55 1 19 53
M  V30 56 1 19 54
M  V30 57 1 21 55
M  V30 58 1 22 56
M  V30 59 1 23 57
M  V30 60 1 23 58
M  V30 61 1 25 59
M  V30 62 1 26 60
M  V30 63 1 27 61
M  V30 64 1 28 62
M  V30 65 1 29 63
M  V30 66 1 30 64
M  V30 67 1 30 65
M  V30 68 1 31 66
M  V30 69 1 32 67
M  V30 70 1 33 68
M  V30 71 1 33 69
M  V30 END BOND
M  V30 END CTAB
M  END
>  <level_0>
2322

>  <index>
2322

>  <NO.>
2323

>  <Name>
(2r,3s,4s,5r,6r)-2-(aminomethyl)-6-[(1r,2r,3s,4r,6s)-4,6-diamino-3-[(2s,3r,4s,5s,6r)-4-amino-3,5-dihydroxy-6-(hydroxymethyl)oxan-2-yl]oxy-2-hydroxycyclohexyl]oxyoxane-3,4,5-triol

>  <SMILES>
NCC1OC(OC2C(N)CC(N)C(OC3OC(CO)C(O)C(N)C3O)C2O)C(O)C(O)C1O

>  <logBB>


>  <Class>
-1

>  <MW>
484.24

>  <nHBAcc>
15

>  <nHBDon>
11

>  <SLogP>
-7.29

>  <TopoPSA>
282.61

>  <MMFF94 Energy>
275.49

$$$$
NCC1OC(OC2C(N)CC(NC(CO)CO)C(OC3OC(CO)C(O)C(N)C3O)C2O)C(N)C(O)C1O
Actelion Java MolfileCreator 2.0

  0  0  0  0  0  0              0 V3000
M  V30 BEGIN CTAB
M  V30 COUNTS 81 83 0 0 0
M  V30 BEGIN ATOM
M  V30 1 O 0.8708 0.6332 1.9799 0
M  V30 2 C 0.1635 1.8133 1.5846 0
M  V30 3 C 2.2693 0.6701 1.6459 0
M  V30 4 O 0.1152 1.971 0.1692 0
M  V30 5 C 0.7703 3.0917 2.2085 0
M  V30 6 C 2.9753 1.8485 2.3344 0
M  V30 7 C 2.8604 -0.6746 2.0842 0
M  V30 8 C -0.4209 0.8584 -0.57 0
M  V30 9 O 0.5444 3.1313 3.6294 0
M  V30 10 C 2.2816 3.1713 1.9412 0
M  V30 11 O 4.3643 1.9387 1.988 0
M  V30 12 O 2.135 -1.746 1.48 0
M  V30 13 C -1.8895 0.5398 -0.197 0
M  V30 14 C -0.2977 1.1941 -2.0881 0
M  V30 15 N 2.8937 4.3182 2.6751 0
M  V30 16 O -2.7111 1.7065 -0.3331 0
M  V30 17 C -2.4536 -0.5987 -1.0649 0
M  V30 18 N 1.1054 1.3772 -2.5345 0
M  V30 19 C -0.886 0.0632 -2.951 0
M  V30 20 O -1.6868 -1.7793 -0.782 0
M  V30 21 C -2.3415 -0.2379 -2.5684 0
M  V30 22 C 1.5277 2.7992 -2.5536 0
M  V30 23 C -2.4985 -2.9381 -0.6012 0
M  V30 24 N -2.8632 -1.3145 -3.4355 0
M  V30 25 C 3.0671 2.8665 -2.4329 0
M  V30 26 C 1.0661 3.5112 -3.8367 0
M  V30 27 O -3.1665 -2.9018 0.6617 0
M  V30 28 C -1.6162 -4.2067 -0.7216 0
M  V30 29 O 3.4976 2.1071 -1.2972 0
M  V30 30 O 1.4853 4.8741 -3.8396 0
M  V30 31 C -2.2521 -2.873 1.778 0
M  V30 32 N -0.8483 -4.3014 -1.9909 0
M  V30 33 C -0.633 -4.257 0.458 0
M  V30 34 C -1.3742 -4.1314 1.7925 0
M  V30 35 C -3.0796 -2.7466 3.0711 0
M  V30 36 O 0.0881 -5.5005 0.4413 0
M  V30 37 O -0.4205 -4.0845 2.8573 0
M  V30 38 N -3.9531 -1.5607 3.024 0
M  V30 39 H -0.8542 1.7169 1.9756 0
M  V30 40 H 2.3684 0.732 0.5576 0
M  V30 41 H 0.2748 3.972 1.7797 0
M  V30 42 H 2.9135 1.7247 3.4239 0
M  V30 43 H 3.9092 -0.7691 1.7899 0
M  V30 44 H 2.7858 -0.8036 3.1691 0
M  V30 45 H 0.1992 -0.0234 -0.3646 0
M  V30 46 H 0.911 3.9947 3.9023 0
M  V30 47 H 2.445 3.3598 0.8735 0
M  V30 48 H 4.8303 1.2061 2.4262 0
M  V30 49 H 1.1998 -1.5769 1.7086 0
M  V30 50 H -1.929 0.234 0.8536 0
M  V30 51 H -0.8694 2.1087 -2.2914 0
M  V30 52 H 3.0511 4.0317 3.6426 0
M  V30 53 H 3.845 4.4075 2.3026 0
M  V30 54 H -3.373 1.6714 0.3816 0
M  V30 55 H -3.513 -0.7387 -0.8089 0
M  V30 56 H 1.725 0.9223 -1.8527 0
M  V30 57 H -0.2744 -0.8442 -2.8493 0
M  V30 58 H -0.8394 0.3544 -4.0094 0
M  V30 59 H -2.9445 0.6573 -2.7658 0
M  V30 60 H 1.1296 3.325 -1.6776 0
M  V30 61 H -3.2696 -2.9855 -1.378 0
M  V30 62 H -3.8769 -1.3626 -3.3297 0
M  V30 63 H -2.7003 -1.0612 -4.4113 0
M  V30 64 H 3.3995 3.9007 -2.2954 0
M  V30 65 H 3.5555 2.4514 -3.3211 0
M  V30 66 H 1.484 3.0251 -4.7252 0
M  V30 67 H -0.0253 3.4983 -3.92 0
M  V30 68 H -2.2608 -5.0933 -0.6672 0
M  V30 69 H 4.4378 2.3171 -1.1602 0
M  V30 70 H 1.1068 5.2809 -4.6382 0
M  V30 71 H -1.6168 -1.9803 1.7089 0
M  V30 72 H -0.2931 -3.4408 -2.0702 0
M  V30 73 H -1.5085 -4.2157 -2.7688 0
M  V30 74 H 0.1216 -3.4646 0.3787 0
M  V30 75 H -1.9898 -5.026 1.9491 0
M  V30 76 H -3.7181 -3.6294 3.1902 0
M  V30 77 H -2.4266 -2.6742 3.9465 0
M  V30 78 H 0.3285 -5.6224 -0.5016 0
M  V30 79 H 0.2471 -4.7651 2.631 0
M  V30 80 H -4.5314 -1.6471 2.1861 0
M  V30 81 H -4.5906 -1.5943 3.8185 0
M  V30 END ATOM
M  V30 BEGIN BOND
M  V30 1 1 1 2
M  V30 2 1 1 3
M  V30 3 1 2 4
M  V30 4 1 2 5
M  V30 5 1 3 6
M  V30 6 1 3 7
M  V30 7 1 4 8
M  V30 8 1 5 9
M  V30 9 1 5 10
M  V30 10 1 6 11
M  V30 11 1 7 12
M  V30 12 1 8 13
M  V30 13 1 8 14
M  V30 14 1 10 15
M  V30 15 1 13 16
M  V30 16 1 13 17
M  V30 17 1 14 18
M  V30 18 1 14 19
M  V30 19 1 17 20
M  V30 20 1 17 21
M  V30 21 1 18 22
M  V30 22 1 20 23
M  V30 23 1 21 24
M  V30 24 1 22 25
M  V30 25 1 22 26
M  V30 26 1 23 27
M  V30 27 1 23 28
M  V30 28 1 25 29
M  V30 29 1 26 30
M  V30 30 1 27 31
M  V30 31 1 28 32
M  V30 32 1 28 33
M  V30 33 1 31 34
M  V30 34 1 31 35
M  V30 35 1 33 36
M  V30 36 1 34 37
M  V30 37 1 35 38
M  V30 38 1 6 10
M  V30 39 1 19 21
M  V30 40 1 33 34
M  V30 41 1 2 39
M  V30 42 1 3 40
M  V30 43 1 5 41
M  V30 44 1 6 42
M  V30 45 1 7 43
M  V30 46 1 7 44
M  V30 47 1 8 45
M  V30 48 1 9 46
M  V30 49 1 10 47
M  V30 50 1 11 48
M  V30 51 1 12 49
M  V30 52 1 13 50
M  V30 53 1 14 51
M  V30 54 1 15 52
M  V30 55 1 15 53
M  V30 56 1 16 54
M  V30 57 1 17 55
M  V30 58 1 18 56
M  V30 59 1 19 57
M  V30 60 1 19 58
M  V30 61 1 21 59
M  V30 62 1 22 60
M  V30 63 1 23 61
M  V30 64 1 24 62
M  V30 65 1 24 63
M  V30 66 1 25 64
M  V30 67 1 25 65
M  V30 68 1 26 66
M  V30 69 1 26 67
M  V30 70 1 28 68
M  V30 71 1 29 69
M  V30 72 1 30 70
M  V30 73 1 31 71
M  V30 74 1 32 72
M  V30 75 1 32 73
M  V30 76 1 33 74
M  V30 77 1 34 75
M  V30 78 1 35 76
M  V30 79 1 35 77
M  V30 80 1 36 78
M  V30 81 1 37 79
M  V30 82 1 38 80
M  V30 83 1 38 81
M  V30 END BOND
M  V30 END CTAB
M  END
>  <level_0>
2323

>  <index>
2323

>  <NO.>
2324

>  <Name>
propikacin

>  <SMILES>
NCC1OC(OC2C(N)CC(NC(CO)CO)C(OC3OC(CO)C(O)C(N)C3O)C2O)C(N)C(O)C1O

>  <logBB>


>  <Class>
-1

>  <MW>
557.29

>  <nHBAcc>
17

>  <nHBDon>
13

>  <SLogP>
-8.34

>  <TopoPSA>
314.87

>  <MMFF94 Energy>
318.07

$$$$
NCCC(O)CNC1CC(N)C(OC2OC(CN)C(O)C(O)C2O)C(O)C1OC1OC(CO)C(O)C(N)C1O
Actelion Java MolfileCreator 2.0

  0  0  0  0  0  0              0 V3000
M  V30 BEGIN CTAB
M  V30 COUNTS 84 86 0 0 0
M  V30 BEGIN ATOM
M  V30 1 O -1.7408 0.5536 -1.6616 0
M  V30 2 C -1.4134 1.7486 -0.947 0
M  V30 3 C -2.0143 0.786 -3.0427 0
M  V30 4 O -1.1579 1.4097 0.4185 0
M  V30 5 C -2.5783 2.7627 -0.9877 0
M  V30 6 C -3.2341 1.7108 -3.2188 0
M  V30 7 C -2.2514 -0.5821 -3.7008 0
M  V30 8 C -0.0056 0.5706 0.5805 0
M  V30 9 O -2.1908 4.0278 -0.4149 0
M  V30 10 C -3.0636 3.0198 -2.426 0
M  V30 11 O -3.4565 2.0432 -4.5961 0
M  V30 12 O -2.5671 -0.4397 -5.0828 0
M  V30 13 C -0.4795 -0.8334 1.0084 0
M  V30 14 C 0.9667 1.1684 1.6333 0
M  V30 15 N -2.1685 4.0014 -3.1107 0
M  V30 16 O -1.1861 -0.7753 2.2598 0
M  V30 17 C 0.721 -1.7858 1.1505 0
M  V30 18 N 1.51 2.4828 1.1966 0
M  V30 19 C 2.161 0.2099 1.8278 0
M  V30 20 O 0.3026 -3.0919 1.5995 0
M  V30 21 C 1.7249 -1.2162 2.1923 0
M  V30 22 C 0.6542 3.5975 1.6776 0
M  V30 23 C -0.4186 -3.861 0.6316 0
M  V30 24 N 2.9151 -2.0751 2.322 0
M  V30 25 C 0.9265 4.865 0.8435 0
M  V30 26 O 0.2248 -3.9533 -0.6345 0
M  V30 27 C -0.7229 -5.2536 1.2321 0
M  V30 28 O 2.3381 5.0998 0.7665 0
M  V30 29 C 0.2228 6.1175 1.3766 0
M  V30 30 C 1.4534 -4.7007 -0.5886 0
M  V30 31 O -1.1648 -5.1284 2.5936 0
M  V30 32 C 0.4729 -6.2095 1.175 0
M  V30 33 C 0.751 6.598 2.729 0
M  V30 34 C 1.1679 -6.1607 -0.1885 0
M  V30 35 C 2.1073 -4.5944 -1.9842 0
M  V30 36 O 1.4465 -5.9069 2.1894 0
M  V30 37 N 0.0463 7.8093 3.1496 0
M  V30 38 O 2.37 -6.9365 -0.1218 0
M  V30 39 N 3.4885 -5.0705 -2.0264 0
M  V30 40 H -0.5068 2.205 -1.3662 0
M  V30 41 H -1.1363 1.2355 -3.5249 0
M  V30 42 H -3.4112 2.3804 -0.3855 0
M  V30 43 H -4.1334 1.2031 -2.8479 0
M  V30 44 H -1.3543 -1.2037 -3.6033 0
M  V30 45 H -3.0718 -1.1131 -3.205 0
M  V30 46 H 0.5352 0.478 -0.3725 0
M  V30 47 H -1.9959 4.6003 -1.1889 0
M  V30 48 H -4.0345 3.5296 -2.3761 0
M  V30 49 H -3.3324 1.2141 -5.1089 0
M  V30 50 H -2.6099 -1.3413 -5.4534 0
M  V30 51 H -1.1994 -1.2108 0.2764 0
M  V30 52 H 0.4584 1.2873 2.5994 0
M  V30 53 H -2.6173 4.1877 -4.0179 0
M  V30 54 H -1.2979 3.5438 -3.3828 0
M  V30 55 H -1.3494 -1.6946 2.536 0
M  V30 56 H 1.2355 -1.8761 0.1855 0
M  V30 57 H 2.4189 2.6225 1.6438 0
M  V30 58 H 2.8171 0.6017 2.6171 0
M  V30 59 H 2.7613 0.1821 0.907 0
M  V30 60 H 1.2458 -1.2067 3.1793 0
M  V30 61 H -0.4124 3.3647 1.6274 0
M  V30 62 H 0.9039 3.7649 2.7309 0
M  V30 63 H -1.3832 -3.3664 0.4765 0
M  V30 64 H 3.5874 -1.6525 2.9604 0
M  V30 65 H 3.3872 -2.1764 1.4245 0
M  V30 66 H 0.581 4.6919 -0.1834 0
M  V30 67 H -1.5345 -5.7056 0.649 0
M  V30 68 H 2.6916 4.2889 0.3552 0
M  V30 69 H -0.8565 5.9315 1.4382 0
M  V30 70 H 0.3684 6.9243 0.6457 0
M  V30 71 H 2.1354 -4.2317 0.1322 0
M  V30 72 H -0.6137 -4.4102 2.9715 0
M  V30 73 H 0.1465 -7.2337 1.3909 0
M  V30 74 H 1.8231 6.8132 2.6709 0
M  V30 75 H 0.6033 5.8341 3.4975 0
M  V30 76 H 0.5094 -6.6192 -0.9361 0
M  V30 77 H 1.5043 -5.1506 -2.7121 0
M  V30 78 H 2.0898 -3.5489 -2.3139 0
M  V30 79 H 0.9656 -5.9259 3.0388 0
M  V30 80 H 0.4634 8.1539 4.0131 0
M  V30 81 H 0.1918 8.54 2.4537 0
M  V30 82 H 2.7596 -6.7133 0.7519 0
M  V30 83 H 3.5185 -6.0028 -1.595 0
M  V30 84 H 3.7757 -5.2019 -2.9949 0
M  V30 END ATOM
M  V30 BEGIN BOND
M  V30 1 1 1 2
M  V30 2 1 1 3
M  V30 3 1 2 4
M  V30 4 1 2 5
M  V30 5 1 3 6
M  V30 6 1 3 7
M  V30 7 1 4 8
M  V30 8 1 5 9
M  V30 9 1 5 10
M  V30 10 1 6 11
M  V30 11 1 7 12
M  V30 12 1 8 13
M  V30 13 1 8 14
M  V30 14 1 10 15
M  V30 15 1 13 16
M  V30 16 1 13 17
M  V30 17 1 14 18
M  V30 18 1 14 19
M  V30 19 1 17 20
M  V30 20 1 17 21
M  V30 21 1 18 22
M  V30 22 1 20 23
M  V30 23 1 21 24
M  V30 24 1 22 25
M  V30 25 1 23 26
M  V30 26 1 23 27
M  V30 27 1 25 28
M  V30 28 1 25 29
M  V30 29 1 26 30
M  V30 30 1 27 31
M  V30 31 1 27 32
M  V30 32 1 29 33
M  V30 33 1 30 34
M  V30 34 1 30 35
M  V30 35 1 32 36
M  V30 36 1 33 37
M  V30 37 1 34 38
M  V30 38 1 35 39
M  V30 39 1 6 10
M  V30 40 1 19 21
M  V30 41 1 32 34
M  V30 42 1 2 40
M  V30 43 1 3 41
M  V30 44 1 5 42
M  V30 45 1 6 43
M  V30 46 1 7 44
M  V30 47 1 7 45
M  V30 48 1 8 46
M  V30 49 1 9 47
M  V30 50 1 10 48
M  V30 51 1 11 49
M  V30 52 1 12 50
M  V30 53 1 13 51
M  V30 54 1 14 52
M  V30 55 1 15 53
M  V30 56 1 15 54
M  V30 57 1 16 55
M  V30 58 1 17 56
M  V30 59 1 18 57
M  V30 60 1 19 58
M  V30 61 1 19 59
M  V30 62 1 21 60
M  V30 63 1 22 61
M  V30 64 1 22 62
M  V30 65 1 23 63
M  V30 66 1 24 64
M  V30 67 1 24 65
M  V30 68 1 25 66
M  V30 69 1 27 67
M  V30 70 1 28 68
M  V30 71 1 29 69
M  V30 72 1 29 70
M  V30 73 1 30 71
M  V30 74 1 31 72
M  V30 75 1 32 73
M  V30 76 1 33 74
M  V30 77 1 33 75
M  V30 78 1 34 76
M  V30 79 1 35 77
M  V30 80 1 35 78
M  V30 81 1 36 79
M  V30 82 1 37 80
M  V30 83 1 37 81
M  V30 84 1 38 82
M  V30 85 1 39 83
M  V30 86 1 39 84
M  V30 END BOND
M  V30 END CTAB
M  END
>  <level_0>
2324

>  <index>
2324

>  <NO.>
2325

>  <Name>
butikacin

>  <SMILES>
NCCC(O)CNC1CC(N)C(OC2OC(CN)C(O)C(O)C2O)C(O)C1OC1OC(CO)C(O)C(N)C1O

>  <logBB>


>  <Class>
-1

>  <MW>
571.31

>  <nHBAcc>
17

>  <nHBDon>
13

>  <SLogP>
-7.95

>  <TopoPSA>
314.87

>  <MMFF94 Energy>
307.25

$$$$
NCCCNCCSP(=O)(O)O
Actelion Java MolfileCreator 2.0

  0  0  0  0  0  0              0 V3000
M  V30 BEGIN CTAB
M  V30 COUNTS 27 26 0 0 0
M  V30 BEGIN ATOM
M  V30 1 S -2.0161 1.8547 -1.9354 0
M  V30 2 P -0.7683 3.1892 -2.8886 0
M  V30 3 C -0.8595 0.6215 -1.2808 0
M  V30 4 O 0.3179 3.7305 -2.0164 0
M  V30 5 O -0.1287 2.5297 -4.2023 0
M  V30 6 O -1.5966 4.3874 -3.5548 0
M  V30 7 C -1.6073 -0.4941 -0.543 0
M  V30 8 N -0.7381 -1.5739 -0.0576 0
M  V30 9 C 0.0768 -1.1806 1.0933 0
M  V30 10 C 0.8854 -2.3819 1.5911 0
M  V30 11 C 1.8482 -2.0319 2.729 0
M  V30 12 N 1.1625 -1.6638 3.9615 0
M  V30 13 H -0.1625 1.1351 -0.6122 0
M  V30 14 H -0.2851 0.2081 -2.1164 0
M  V30 15 H 0.6408 3.0297 -4.5258 0
M  V30 16 H -1.0397 5.1624 -3.7443 0
M  V30 17 H -2.3293 -0.9556 -1.228 0
M  V30 18 H -2.1926 -0.0869 0.2912 0
M  V30 19 H -0.1455 -1.9174 -0.812 0
M  V30 20 H 0.7657 -0.3746 0.8186 0
M  V30 21 H -0.5731 -0.8156 1.8961 0
M  V30 22 H 1.4784 -2.7883 0.7614 0
M  V30 23 H 0.207 -3.1828 1.9131 0
M  V30 24 H 2.5146 -1.2177 2.4232 0
M  V30 25 H 2.4778 -2.9045 2.9349 0
M  V30 26 H 1.8503 -1.4732 4.6894 0
M  V30 27 H 0.638 -0.8 3.8349 0
M  V30 END ATOM
M  V30 BEGIN BOND
M  V30 1 1 1 2
M  V30 2 1 1 3
M  V30 3 2 2 4
M  V30 4 1 2 5
M  V30 5 1 2 6
M  V30 6 1 3 7
M  V30 7 1 7 8
M  V30 8 1 8 9
M  V30 9 1 9 10
M  V30 10 1 10 11
M  V30 11 1 11 12
M  V30 12 1 3 13
M  V30 13 1 3 14
M  V30 14 1 5 15
M  V30 15 1 6 16
M  V30 16 1 7 17
M  V30 17 1 7 18
M  V30 18 1 8 19
M  V30 19 1 9 20
M  V30 20 1 9 21
M  V30 21 1 10 22
M  V30 22 1 10 23
M  V30 23 1 11 24
M  V30 24 1 11 25
M  V30 25 1 12 26
M  V30 26 1 12 27
M  V30 END BOND
M  V30 END CTAB
M  END
>  <level_0>
2326

>  <index>
2326

>  <NO.>
2327

>  <Name>
amifostine

>  <SMILES>
NCCCNCCSP(=O)(O)O

>  <logBB>


>  <Class>
-1

>  <MW>
214.05

>  <nHBAcc>
4

>  <nHBDon>
4

>  <SLogP>
-0.25

>  <TopoPSA>
95.58

>  <MMFF94 Energy>
-168.03

$$$$
NCC[C@H](O)C(=O)N[C@@H]1C[C@H](N)[C@@H](O[C@H]2O[C@H](CN)CC[C@H]2N)[C@H](O)[C@H]1O[C@H]1O[C@H](CO)[C@@H](O)[C@H](N)[C@H]1O
Actelion Java MolfileCreator 2.0

  0  0  0  0  0  0              0 V3000
M  V30 BEGIN CTAB
M  V30 COUNTS 82 84 0 0 0
M  V30 BEGIN ATOM
M  V30 1 O 2.7676 -3.6387 0.0789 0
M  V30 2 C 2.4159 -3.1123 1.134 0
M  V30 3 N 1.5708 -2.0289 1.1916 0
M  V30 4 C 2.8702 -3.675 2.4961 0 CFG=1
M  V30 5 C 0.9614 -1.4313 -0.0012 0 CFG=1
M  V30 6 O 3.7494 -4.783 2.3182 0
M  V30 7 C 3.5514 -2.6232 3.3763 0
M  V30 8 C -0.1362 -0.4189 0.407 0 CFG=2
M  V30 9 C 2.0067 -0.7502 -0.8844 0
M  V30 10 C 4.8583 -2.1046 2.7728 0
M  V30 11 O -1.0418 -1.1599 1.2447 0
M  V30 12 C -0.7858 0.1722 -0.8537 0 CFG=1
M  V30 13 C 1.3922 -0.1645 -2.1633 0 CFG=1
M  V30 14 N 5.4242 -1.0578 3.621 0
M  V30 15 C -2.2037 -0.5165 1.7598 0 CFG=1
M  V30 16 O -1.7285 1.215 -0.4997 0
M  V30 17 C 0.2229 0.804 -1.8462 0 CFG=1
M  V30 18 N 2.4934 0.4873 -2.9061 0
M  V30 19 O -2.9524 -1.4948 2.5081 0
M  V30 20 C -1.9537 0.7139 2.6742 0 CFG=2
M  V30 21 O -0.6233 1.1396 -2.9619 0
M  V30 22 C -2.2264 -1.9972 3.6517 0 CFG=1
M  V30 23 O -1.28 1.8076 2.0429 0
M  V30 24 C -1.1488 0.2674 3.9054 0 CFG=2
M  V30 25 C -0.0523 1.7503 -4.1152 0 CFG=1
M  V30 26 C -1.8885 -0.8678 4.6333 0 CFG=2
M  V30 27 C -3.1044 -3.0652 4.314 0
M  V30 28 N -0.8671 1.3806 4.848 0
M  V30 29 O -1.0384 1.724 -5.1654 0
M  V30 30 C 0.4141 3.2304 -3.9342 0 CFG=2
M  V30 31 O -1.0707 -1.3396 5.7046 0
M  V30 32 O -3.4071 -4.0933 3.3673 0
M  V30 33 C -2.2266 2.4621 -4.8474 0 CFG=1
M  V30 34 N 1.4954 3.461 -2.9637 0
M  V30 35 C -0.7865 4.113 -3.5816 0
M  V30 36 C -1.8854 3.9406 -4.6286 0
M  V30 37 C -3.2394 2.3164 -6.0064 0
M  V30 38 N -3.7315 0.946 -6.1699 0
M  V30 39 H 1.1615 -1.786 2.0873 0
M  V30 40 H 1.974 -4.049 3.0046 0
M  V30 41 H 0.5022 -2.2638 -0.5514 0
M  V30 42 H 3.5544 -5.1443 1.43 0
M  V30 43 H 2.8679 -1.7862 3.5634 0
M  V30 44 H 3.7763 -3.076 4.3511 0
M  V30 45 H 0.322 0.3687 1.0139 0
M  V30 46 H 2.5039 0.0395 -0.303 0
M  V30 47 H 2.7946 -1.4615 -1.1598 0
M  V30 48 H 4.6925 -1.6949 1.7711 0
M  V30 49 H 5.5857 -2.9183 2.6846 0
M  V30 50 H -1.3825 -0.6017 -1.3537 0
M  V30 51 H 1.0077 -0.9737 -2.7963 0
M  V30 52 H 6.309 -0.7447 3.2235 0
M  V30 53 H 4.8095 -0.2462 3.6353 0
M  V30 54 H -2.8537 -0.2397 0.927 0
M  V30 55 H -1.985 1.5961 -1.3685 0
M  V30 56 H 0.5947 1.729 -1.3934 0
M  V30 57 H 3.1301 -0.2388 -3.2448 0
M  V30 58 H 3.0533 1.046 -2.2591 0
M  V30 59 H -2.9273 1.0958 3.0085 0
M  V30 60 H -1.3137 -2.4953 3.2999 0
M  V30 61 H -1.6139 1.853 1.1184 0
M  V30 62 H -0.16 -0.0887 3.5885 0
M  V30 63 H 0.7667 1.1401 -4.4984 0
M  V30 64 H -2.8158 -0.4732 5.0693 0
M  V30 65 H -2.6057 -3.5266 5.1711 0
M  V30 66 H -4.0581 -2.6405 4.6444 0
M  V30 67 H -0.42 2.1185 4.2902 0
M  V30 68 H -1.7507 1.8059 5.1362 0
M  V30 69 H 0.7899 3.5619 -4.9121 0
M  V30 70 H -0.673 -0.5315 6.0934 0
M  V30 71 H -3.642 -3.6272 2.5418 0
M  V30 72 H -2.6795 2.0506 -3.9361 0
M  V30 73 H 1.8785 4.3949 -3.1058 0
M  V30 74 H 2.2468 2.8032 -3.1884 0
M  V30 75 H -0.4921 5.1688 -3.5393 0
M  V30 76 H -1.1787 3.849 -2.5911 0
M  V30 77 H -2.7781 4.4997 -4.3262 0
M  V30 78 H -1.5316 4.377 -5.5717 0
M  V30 79 H -4.0984 2.9734 -5.8301 0
M  V30 80 H -2.7687 2.6177 -6.9489 0
M  V30 81 H -4.4768 0.9268 -6.8626 0
M  V30 82 H -4.1205 0.6035 -5.2946 0
M  V30 END ATOM
M  V30 BEGIN BOND
M  V30 1 2 1 2
M  V30 2 1 2 3
M  V30 3 1 2 4
M  V30 4 1 3 5
M  V30 5 1 4 6
M  V30 6 1 4 7
M  V30 7 1 5 8
M  V30 8 1 5 9
M  V30 9 1 7 10
M  V30 10 1 8 11
M  V30 11 1 8 12
M  V30 12 1 9 13
M  V30 13 1 10 14
M  V30 14 1 11 15
M  V30 15 1 12 16
M  V30 16 1 12 17
M  V30 17 1 13 18
M  V30 18 1 15 19
M  V30 19 1 15 20
M  V30 20 1 17 21
M  V30 21 1 19 22
M  V30 22 1 20 23
M  V30 23 1 20 24
M  V30 24 1 21 25
M  V30 25 1 22 26
M  V30 26 1 22 27
M  V30 27 1 24 28
M  V30 28 1 25 29
M  V30 29 1 25 30
M  V30 30 1 26 31
M  V30 31 1 27 32
M  V30 32 1 29 33
M  V30 33 1 30 34
M  V30 34 1 30 35
M  V30 35 1 33 36
M  V30 36 1 33 37
M  V30 37 1 37 38
M  V30 38 1 13 17
M  V30 39 1 24 26
M  V30 40 1 35 36
M  V30 41 1 3 39
M  V30 42 1 4 40
M  V30 43 1 5 41
M  V30 44 1 6 42
M  V30 45 1 7 43
M  V30 46 1 7 44
M  V30 47 1 8 45
M  V30 48 1 9 46
M  V30 49 1 9 47
M  V30 50 1 10 48
M  V30 51 1 10 49
M  V30 52 1 12 50
M  V30 53 1 13 51
M  V30 54 1 14 52
M  V30 55 1 14 53
M  V30 56 1 15 54
M  V30 57 1 16 55
M  V30 58 1 17 56
M  V30 59 1 18 57
M  V30 60 1 18 58
M  V30 61 1 20 59
M  V30 62 1 22 60
M  V30 63 1 23 61
M  V30 64 1 24 62
M  V30 65 1 25 63
M  V30 66 1 26 64
M  V30 67 1 27 65
M  V30 68 1 27 66
M  V30 69 1 28 67
M  V30 70 1 28 68
M  V30 71 1 30 69
M  V30 72 1 31 70
M  V30 73 1 32 71
M  V30 74 1 33 72
M  V30 75 1 34 73
M  V30 76 1 34 74
M  V30 77 1 35 75
M  V30 78 1 35 76
M  V30 79 1 36 77
M  V30 80 1 36 78
M  V30 81 1 37 79
M  V30 82 1 37 80
M  V30 83 1 38 81
M  V30 84 1 38 82
M  V30 END BOND
M  V30 BEGIN COLLECTION
M  V30 MDLV30/STEABS ATOMS=(14 4 5 8 12 13 15 17 20 22 24 25 26 30 33)
M  V30 END COLLECTION
M  V30 END CTAB
M  END
>  <level_0>
2327

>  <index>
2327

>  <NO.>
2328

>  <Name>
arbekacin

>  <SMILES>
NCC[C@H](O)C(=O)N[C@@H]1C[C@H](N)[C@@H](O[C@H]2O[C@H](CN)CC[C@H]2N)[C@H](O)[C@H]1O[C@H]1O[C@H](CO)[C@@H](O)[C@H](N)[C@H]1O

>  <logBB>


>  <Class>
-1

>  <MW>
552.31

>  <nHBAcc>
15

>  <nHBDon>
11

>  <SLogP>
-6.4

>  <TopoPSA>
297.27

>  <MMFF94 Energy>
235.2

$$$$
NC[C@H]1O[C@H](O[C@@H]2[C@@H](N)C[C@@H](N)[C@H](O)[C@H]2O)[C@H](N)[C@@H](O)[C@@H]1O
Actelion Java MolfileCreator 2.0

  0  0  0  0  0  0              0 V3000
M  V30 BEGIN CTAB
M  V30 COUNTS 48 49 0 0 0
M  V30 BEGIN ATOM
M  V30 1 O 1.5771 0.8671 -1.2615 0
M  V30 2 C 0.5629 -0.1336 -1.1635 0 CFG=2
M  V30 3 C 2.7628 0.5593 -0.4964 0 CFG=1
M  V30 4 O 0.1286 -0.2488 0.1925 0
M  V30 5 C 1.0923 -1.4937 -1.6868 0 CFG=2
M  V30 6 C 3.3771 -0.7991 -0.8748 0 CFG=2
M  V30 7 C 3.7632 1.7162 -0.7075 0
M  V30 8 C -1.1563 0.3452 0.4454 0 CFG=1
M  V30 9 N 0.0673 -2.5722 -1.696 0
M  V30 10 C 2.3142 -1.9053 -0.8505 0 CFG=2
M  V30 11 O 4.4307 -1.1512 0.0304 0
M  V30 12 N 4.0527 1.9542 -2.1304 0
M  V30 13 C -2.2201 -0.7654 0.4638 0 CFG=2
M  V30 14 C -1.1037 1.0556 1.8214 0 CFG=1
M  V30 15 O 2.8851 -3.1262 -1.3659 0
M  V30 16 O -2.3459 -1.3755 -0.8318 0
M  V30 17 C -3.5932 -0.2053 0.8525 0 CFG=1
M  V30 18 N -0.1174 2.1498 1.8172 0
M  V30 19 C -2.4789 1.6044 2.2259 0
M  V30 20 O -4.548 -1.276 0.8943 0
M  V30 21 C -3.5352 0.4944 2.2246 0 CFG=1
M  V30 22 N -4.8517 1.0375 2.5974 0
M  V30 23 H -0.2566 0.1797 -1.8213 0
M  V30 24 H 2.5044 0.5556 0.5703 0
M  V30 25 H 1.4304 -1.3676 -2.7243 0
M  V30 26 H 3.8188 -0.7583 -1.8777 0
M  V30 27 H 3.3267 2.637 -0.3026 0
M  V30 28 H 4.698 1.5262 -0.1706 0
M  V30 29 H -1.3946 1.0855 -0.3307 0
M  V30 30 H 0.5663 -3.4637 -1.5818 0
M  V30 31 H -0.3436 -2.6236 -2.632 0
M  V30 32 H 2.0271 -2.1251 0.1853 0
M  V30 33 H 4.5976 -2.1053 -0.0982 0
M  V30 34 H 4.6106 2.8037 -2.213 0
M  V30 35 H 3.1641 2.1518 -2.5951 0
M  V30 36 H -1.9319 -1.5718 1.1501 0
M  V30 37 H -0.7676 0.3352 2.5784 0
M  V30 38 H 3.18 -2.9576 -2.2789 0
M  V30 39 H -1.5182 -1.8968 -0.9617 0
M  V30 40 H -3.9435 0.4902 0.0787 0
M  V30 41 H -0.3769 2.8529 1.1261 0
M  V30 42 H 0.7703 1.7652 1.4879 0
M  V30 43 H -2.4182 2.0561 3.225 0
M  V30 44 H -2.7789 2.4045 1.5345 0
M  V30 45 H -4.3858 -1.7892 0.0772 0
M  V30 46 H -3.2772 -0.2483 2.9904 0
M  V30 47 H -5.1627 1.7053 1.893 0
M  V30 48 H -5.5188 0.2614 2.5267 0
M  V30 END ATOM
M  V30 BEGIN BOND
M  V30 1 1 1 2
M  V30 2 1 1 3
M  V30 3 1 2 4
M  V30 4 1 2 5
M  V30 5 1 3 6
M  V30 6 1 3 7
M  V30 7 1 4 8
M  V30 8 1 5 9
M  V30 9 1 5 10
M  V30 10 1 6 11
M  V30 11 1 7 12
M  V30 12 1 8 13
M  V30 13 1 8 14
M  V30 14 1 10 15
M  V30 15 1 13 16
M  V30 16 1 13 17
M  V30 17 1 14 18
M  V30 18 1 14 19
M  V30 19 1 17 20
M  V30 20 1 17 21
M  V30 21 1 21 22
M  V30 22 1 6 10
M  V30 23 1 19 21
M  V30 24 1 2 23
M  V30 25 1 3 24
M  V30 26 1 5 25
M  V30 27 1 6 26
M  V30 28 1 7 27
M  V30 29 1 7 28
M  V30 30 1 8 29
M  V30 31 1 9 30
M  V30 32 1 9 31
M  V30 33 1 10 32
M  V30 34 1 11 33
M  V30 35 1 12 34
M  V30 36 1 12 35
M  V30 37 1 13 36
M  V30 38 1 14 37
M  V30 39 1 15 38
M  V30 40 1 16 39
M  V30 41 1 17 40
M  V30 42 1 18 41
M  V30 43 1 18 42
M  V30 44 1 19 43
M  V30 45 1 19 44
M  V30 46 1 20 45
M  V30 47 1 21 46
M  V30 48 1 22 47
M  V30 49 1 22 48
M  V30 END BOND
M  V30 BEGIN COLLECTION
M  V30 MDLV30/STEABS ATOMS=(10 2 3 5 6 8 10 13 14 17 21)
M  V30 END COLLECTION
M  V30 END CTAB
M  END
>  <level_0>
2330

>  <index>
2330

>  <NO.>
2331

>  <Name>
neomycin

>  <SMILES>
NC[C@H]1O[C@H](O[C@@H]2[C@@H](N)C[C@@H](N)[C@H](O)[C@H]2O)[C@H](N)[C@@H](O)[C@@H]1O

>  <logBB>


>  <Class>
-1

>  <MW>
322.19

>  <nHBAcc>
10

>  <nHBDon>
8

>  <SLogP>
-5.12

>  <TopoPSA>
203.46

>  <MMFF94 Energy>
180.41

$$$$
NC[C@H]1O[C@H](O[C@@H]2[C@@H](N)C[C@@H](N)[C@H](O[C@H]3O[C@H](CO)[C@@H](O)[C@H](N)[C@H]3O)[C@H]2O)[C@H](N)C[C@@H]1O
Actelion Java MolfileCreator 2.0

  0  0  0  0  0  0              0 V3000
M  V30 BEGIN CTAB
M  V30 COUNTS 69 71 0 0 0
M  V30 BEGIN ATOM
M  V30 1 O -2.4553 -2.1382 -2.2967 0
M  V30 2 C -1.6912 -2.942 -1.3978 0 CFG=2
M  V30 3 C -1.8081 -1.9085 -3.5649 0 CFG=1
M  V30 4 O -0.5061 -2.247 -0.9866 0
M  V30 5 C -1.2895 -4.3005 -2.0172 0 CFG=2
M  V30 6 C -1.521 -3.2297 -4.285 0 CFG=2
M  V30 7 C -2.727 -1.002 -4.3889 0
M  V30 8 C -0.6889 -1.5207 0.2521 0 CFG=2
M  V30 9 O -0.3852 -5.0082 -1.1499 0
M  V30 10 C -0.6279 -4.1014 -3.3896 0 CFG=2
M  V30 11 O -0.8592 -3.012 -5.5301 0
M  V30 12 O -2.9607 0.2116 -3.6694 0
M  V30 13 C 0.0927 -0.2016 0.1145 0 CFG=1
M  V30 14 C -0.1382 -2.3583 1.4339 0 CFG=2
M  V30 15 N -0.3164 -5.3852 -4.0654 0
M  V30 16 O -0.502 0.5919 -0.93 0
M  V30 17 C 0.1155 0.6148 1.421 0 CFG=2
M  V30 18 N -0.8936 -3.6052 1.6297 0
M  V30 19 C -0.1699 -1.551 2.7348 0
M  V30 20 O 1.0509 1.7047 1.2596 0
M  V30 21 C 0.613 -0.2433 2.605 0 CFG=2
M  V30 22 C 0.4095 2.9293 0.882 0 CFG=1
M  V30 23 N 0.4896 0.4911 3.8723 0
M  V30 24 O 0.182 3.7375 2.0349 0
M  V30 25 C 1.2734 3.6808 -0.1737 0 CFG=2
M  V30 26 C 1.3868 4.1673 2.6878 0 CFG=1
M  V30 27 N 1.6094 2.8539 -1.3503 0
M  V30 28 C 2.5687 4.1921 0.4569 0
M  V30 29 C 2.266 4.989 1.7254 0 CFG=2
M  V30 30 C 1.0022 5.0087 3.9269 0
M  V30 31 O 3.4926 5.3767 2.3459 0
M  V30 32 N 0.3297 4.2133 4.9637 0
M  V30 33 H -2.3295 -3.1533 -0.5331 0
M  V30 34 H -0.8755 -1.3583 -3.3878 0
M  V30 35 H -2.1904 -4.9149 -2.137 0
M  V30 36 H -2.4626 -3.7553 -4.4904 0
M  V30 37 H -2.2831 -0.7439 -5.3545 0
M  V30 38 H -3.7006 -1.4732 -4.5595 0
M  V30 39 H -1.7517 -1.2781 0.3927 0
M  V30 40 H 0.3981 -4.43 -1.0611 0
M  V30 41 H 0.3442 -3.6072 -3.2607 0
M  V30 42 H -0.4118 -3.8608 -5.7339 0
M  V30 43 H -3.2812 -0.0583 -2.7878 0
M  V30 44 H 1.1185 -0.4024 -0.2195 0
M  V30 45 H 0.898 -2.6448 1.2127 0
M  V30 46 H 0.2347 -5.9504 -3.4108 0
M  V30 47 H -1.1777 -5.9227 -4.1871 0
M  V30 48 H -0.6687 -0.0127 -1.6775 0
M  V30 49 H -0.8884 1.0016 1.6461 0
M  V30 50 H -0.5649 -4.0857 2.4686 0
M  V30 51 H -0.7144 -4.2551 0.8588 0
M  V30 52 H -1.2128 -1.3354 3.0087 0
M  V30 53 H 0.2527 -2.1495 3.5534 0
M  V30 54 H 1.6783 -0.4609 2.4534 0
M  V30 55 H -0.5702 2.738 0.429 0
M  V30 56 H 1.2029 0.1836 4.5297 0
M  V30 57 H 0.6511 1.488 3.7017 0
M  V30 58 H 0.7028 4.5523 -0.519 0
M  V30 59 H 1.9502 3.2918 3.0369 0
M  V30 60 H 2.1112 2.0303 -1.0113 0
M  V30 61 H 0.7344 2.4564 -1.711 0
M  V30 62 H 3.1249 4.8229 -0.2486 0
M  V30 63 H 3.2401 3.3567 0.6992 0
M  V30 64 H 1.7359 5.907 1.4433 0
M  V30 65 H 1.8889 5.4703 4.3736 0
M  V30 66 H 0.3181 5.81 3.6249 0
M  V30 67 H 4.0729 4.5966 2.3863 0
M  V30 68 H 0.0572 4.826 5.7307 0
M  V30 69 H 0.9761 3.5312 5.3534 0
M  V30 END ATOM
M  V30 BEGIN BOND
M  V30 1 1 1 2
M  V30 2 1 1 3
M  V30 3 1 2 4
M  V30 4 1 2 5
M  V30 5 1 3 6
M  V30 6 1 3 7
M  V30 7 1 4 8
M  V30 8 1 5 9
M  V30 9 1 5 10
M  V30 10 1 6 11
M  V30 11 1 7 12
M  V30 12 1 8 13
M  V30 13 1 8 14
M  V30 14 1 10 15
M  V30 15 1 13 16
M  V30 16 1 13 17
M  V30 17 1 14 18
M  V30 18 1 14 19
M  V30 19 1 17 20
M  V30 20 1 17 21
M  V30 21 1 20 22
M  V30 22 1 21 23
M  V30 23 1 22 24
M  V30 24 1 22 25
M  V30 25 1 24 26
M  V30 26 1 25 27
M  V30 27 1 25 28
M  V30 28 1 26 29
M  V30 29 1 26 30
M  V30 30 1 29 31
M  V30 31 1 30 32
M  V30 32 1 6 10
M  V30 33 1 19 21
M  V30 34 1 28 29
M  V30 35 1 2 33
M  V30 36 1 3 34
M  V30 37 1 5 35
M  V30 38 1 6 36
M  V30 39 1 7 37
M  V30 40 1 7 38
M  V30 41 1 8 39
M  V30 42 1 9 40
M  V30 43 1 10 41
M  V30 44 1 11 42
M  V30 45 1 12 43
M  V30 46 1 13 44
M  V30 47 1 14 45
M  V30 48 1 15 46
M  V30 49 1 15 47
M  V30 50 1 16 48
M  V30 51 1 17 49
M  V30 52 1 18 50
M  V30 53 1 18 51
M  V30 54 1 19 52
M  V30 55 1 19 53
M  V30 56 1 21 54
M  V30 57 1 22 55
M  V30 58 1 23 56
M  V30 59 1 23 57
M  V30 60 1 25 58
M  V30 61 1 26 59
M  V30 62 1 27 60
M  V30 63 1 27 61
M  V30 64 1 28 62
M  V30 65 1 28 63
M  V30 66 1 29 64
M  V30 67 1 30 65
M  V30 68 1 30 66
M  V30 69 1 31 67
M  V30 70 1 32 68
M  V30 71 1 32 69
M  V30 END BOND
M  V30 BEGIN COLLECTION
M  V30 MDLV30/STEABS ATOMS=(14 2 3 5 6 8 10 13 14 17 21 22 25 26 29)
M  V30 END COLLECTION
M  V30 END CTAB
M  END
>  <level_0>
2331

>  <index>
2331

>  <NO.>
2332

>  <Name>
tobramycin

>  <SMILES>
NC[C@H]1O[C@H](O[C@@H]2[C@@H](N)C[C@@H](N)[C@H](O[C@H]3O[C@H](CO)[C@@H](O)[C@H](N)[C@H]3O)[C@H]2O)[C@H](N)C[C@@H]1O

>  <logBB>


>  <Class>
-1

>  <MW>
467.26

>  <nHBAcc>
14

>  <nHBDon>
10

>  <SLogP>
-6.3

>  <TopoPSA>
268.17

>  <MMFF94 Energy>
248.71

$$$$
NCc1ccccc1CC(=O)N[C@@H]1C(=O)N2C(C(=O)O)=C(CSc3nnnn3CC(=O)O)CS[C@H]12
Actelion Java MolfileCreator 2.0

  0  0  0  0  0  0              0 V3000
M  V30 BEGIN CTAB
M  V30 COUNTS 56 59 0 0 0
M  V30 BEGIN ATOM
M  V30 1 S 0.9016 1.8039 -1.1476 0
M  V30 2 C 1.415 2.4349 0.473 0 CFG=1
M  V30 3 C -0.7444 2.5845 -1.0609 0
M  V30 4 N 0.5059 1.8972 1.4591 0
M  V30 5 C 2.5523 1.7038 1.2508 0 CFG=1
M  V30 6 C -1.4763 2.2984 0.2343 0
M  V30 7 C -0.8432 1.9571 1.3817 0
M  V30 8 C 1.4261 1.3803 2.2927 0
M  V30 9 N 3.1908 0.5179 0.6199 0
M  V30 10 C -2.9844 2.4016 0.1363 0
M  V30 11 C -1.6377 1.5376 2.5613 0
M  V30 12 O 1.3483 0.825 3.362 0
M  V30 13 C 4.2213 0.6554 -0.2803 0
M  V30 14 S -3.6805 0.7704 -0.2781 0
M  V30 15 O -2.1872 2.2858 3.3478 0
M  V30 16 O -1.7834 0.2025 2.5772 0
M  V30 17 O 4.6807 1.757 -0.5784 0
M  V30 18 C 4.8113 -0.6355 -0.823 0
M  V30 19 C -5.2536 0.9419 0.4044 0
M  V30 20 C 3.7922 -1.6959 -1.1856 0
M  V30 21 N -5.9888 2.0286 0.4222 0
M  V30 22 N -5.937 -0.0597 1.0292 0
M  V30 23 C 2.9893 -1.6138 -2.3448 0
M  V30 24 C 3.6316 -2.7921 -0.3153 0
M  V30 25 N -7.1548 1.6807 1.0629 0
M  V30 26 N -7.1373 0.405 1.4279 0
M  V30 27 C -5.5916 -1.4443 1.2287 0
M  V30 28 C 2.0602 -2.6399 -2.6002 0
M  V30 29 C 3.1073 -0.4985 -3.3601 0
M  V30 30 C 2.6957 -3.7903 -0.5818 0
M  V30 31 C -4.6907 -1.634 2.4151 0
M  V30 32 C 1.9101 -3.7147 -1.7251 0
M  V30 33 N 3.9456 -0.9008 -4.4829 0
M  V30 34 O -4.1536 -0.7825 3.1062 0
M  V30 35 O -4.4748 -2.9443 2.6693 0
M  V30 36 H 1.4963 3.5278 0.5219 0
M  V30 37 H -1.3115 2.1938 -1.912 0
M  V30 38 H -0.6431 3.6665 -1.1978 0
M  V30 39 H 3.3068 2.3834 1.6666 0
M  V30 40 H 2.8137 -0.4088 0.7936 0
M  V30 41 H -3.4092 2.775 1.074 0
M  V30 42 H -3.2723 3.1238 -0.6359 0
M  V30 43 H -2.4792 0.0331 3.2566 0
M  V30 44 H 5.5064 -1.0178 -0.0651 0
M  V30 45 H 5.4217 -0.4037 -1.7036 0
M  V30 46 H 4.2429 -2.8797 0.5814 0
M  V30 47 H -6.5196 -2.0041 1.3865 0
M  V30 48 H -5.0993 -1.8132 0.3246 0
M  V30 49 H 1.454 -2.6047 -3.5043 0
M  V30 50 H 2.109 -0.2365 -3.7304 0
M  V30 51 H 3.5077 0.4135 -2.91 0
M  V30 52 H 2.5872 -4.6316 0.0976 0
M  V30 53 H 1.1883 -4.4965 -1.9456 0
M  V30 54 H 4.8672 -1.1565 -4.1333 0
M  V30 55 H 4.084 -0.0982 -5.0939 0
M  V30 56 H -3.8773 -2.9696 3.4481 0
M  V30 END ATOM
M  V30 BEGIN BOND
M  V30 1 1 1 2
M  V30 2 1 1 3
M  V30 3 1 2 4
M  V30 4 1 2 5
M  V30 5 1 3 6
M  V30 6 1 4 7
M  V30 7 1 4 8
M  V30 8 1 5 9
M  V30 9 1 6 10
M  V30 10 1 7 11
M  V30 11 2 8 12
M  V30 12 1 9 13
M  V30 13 1 10 14
M  V30 14 2 11 15
M  V30 15 1 11 16
M  V30 16 2 13 17
M  V30 17 1 13 18
M  V30 18 1 14 19
M  V30 19 1 18 20
M  V30 20 2 19 21
M  V30 21 1 19 22
M  V30 22 2 20 23
M  V30 23 1 20 24
M  V30 24 1 21 25
M  V30 25 1 22 26
M  V30 26 1 22 27
M  V30 27 1 23 28
M  V30 28 1 23 29
M  V30 29 2 24 30
M  V30 30 1 27 31
M  V30 31 2 28 32
M  V30 32 1 29 33
M  V30 33 2 31 34
M  V30 34 1 31 35
M  V30 35 1 5 8
M  V30 36 2 6 7
M  V30 37 2 25 26
M  V30 38 1 30 32
M  V30 39 1 2 36
M  V30 40 1 3 37
M  V30 41 1 3 38
M  V30 42 1 5 39
M  V30 43 1 9 40
M  V30 44 1 10 41
M  V30 45 1 10 42
M  V30 46 1 16 43
M  V30 47 1 18 44
M  V30 48 1 18 45
M  V30 49 1 24 46
M  V30 50 1 27 47
M  V30 51 1 27 48
M  V30 52 1 28 49
M  V30 53 1 29 50
M  V30 54 1 29 51
M  V30 55 1 30 52
M  V30 56 1 32 53
M  V30 57 1 33 54
M  V30 58 1 33 55
M  V30 59 1 35 56
M  V30 END BOND
M  V30 BEGIN COLLECTION
M  V30 MDLV30/STEABS ATOMS=(2 2 5)
M  V30 END COLLECTION
M  V30 END CTAB
M  END
>  <level_0>
2332

>  <index>
2332

>  <NO.>
2333

>  <Name>
ceforanide

>  <SMILES>
NCc1ccccc1CC(=O)N[C@@H]1C(=O)N2C(C(=O)O)=C(CSc3nnnn3CC(=O)O)CS[C@H]12

>  <logBB>


>  <Class>
-1

>  <MW>
519.1

>  <nHBAcc>
10

>  <nHBDon>
4

>  <SLogP>
-0.71

>  <TopoPSA>
193.63

>  <MMFF94 Energy>
-17.236

$$$$
Nc1nc(/C(=C/CC(=O)O)C(=O)N[C@@H]2C(=O)N3C(C(=O)O)=CCS[C@H]23)cs1
Actelion Java MolfileCreator 2.0

  0  0  0  0  0  0              0 V3000
M  V30 BEGIN CTAB
M  V30 COUNTS 41 43 0 0 0
M  V30 BEGIN ATOM
M  V30 1 S 0.0 -1.318 2.225 0
M  V30 2 C -0.1092 -2.4359 0.7939 0 CFG=1
M  V30 3 C -0.7228 -2.5241 3.3815 0
M  V30 4 N -1.5056 -2.7576 0.5912 0
M  V30 5 C -0.1322 -1.8172 -0.6371 0 CFG=1
M  V30 6 C -1.9697 -3.1717 2.8495 0
M  V30 7 C -2.3352 -3.2284 1.5541 0
M  V30 8 C -1.6205 -2.288 -0.6655 0
M  V30 9 N 0.0783 -0.3525 -0.7742 0
M  V30 10 C -3.6465 -3.812 1.1587 0
M  V30 11 O -2.548 -2.1767 -1.431 0
M  V30 12 C 1.3433 0.1852 -0.7569 0
M  V30 13 O -3.8838 -4.4095 0.1248 0
M  V30 14 O -4.5998 -3.6414 2.0943 0
M  V30 15 O 2.3637 -0.4813 -0.6356 0
M  V30 16 C 1.3611 1.6724 -0.8829 0
M  V30 17 C 1.6083 2.4496 0.2987 0
M  V30 18 C 1.1283 2.2115 -2.0992 0
M  V30 19 N 1.2566 3.7908 0.3075 0
M  V30 20 C 2.1664 1.9857 1.4725 0
M  V30 21 C 0.9035 1.4956 -3.4044 0
M  V30 22 C 1.5538 4.3269 1.465 0
M  V30 23 S 2.2569 3.2618 2.6133 0
M  V30 24 C 1.9149 1.9218 -4.451 0
M  V30 25 N 1.3311 5.6125 1.7537 0
M  V30 26 O 2.7278 2.8281 -4.3857 0
M  V30 27 O 1.8191 1.1762 -5.572 0
M  V30 28 H 0.5278 -3.3251 0.8696 0
M  V30 29 H 0.0186 -3.2911 3.6266 0
M  V30 30 H -0.9631 -1.985 4.3034 0
M  V30 31 H 0.4785 -2.3688 -1.3632 0
M  V30 32 H -2.6348 -3.5779 3.6095 0
M  V30 33 H -0.7176 0.2742 -0.8431 0
M  V30 34 H -5.3919 -4.0431 1.6789 0
M  V30 35 H 1.1343 3.3003 -2.1793 0
M  V30 36 H 2.5244 0.995 1.7162 0
M  V30 37 H 0.9776 0.4098 -3.2968 0
M  V30 38 H -0.0956 1.745 -3.7768 0
M  V30 39 H 1.5751 6.0148 2.6476 0
M  V30 40 H 0.9275 6.2204 1.0534 0
M  V30 41 H 2.5118 1.546 -6.1594 0
M  V30 END ATOM
M  V30 BEGIN BOND
M  V30 1 1 1 2
M  V30 2 1 1 3
M  V30 3 1 2 4
M  V30 4 1 2 5
M  V30 5 1 3 6
M  V30 6 1 4 7
M  V30 7 1 4 8
M  V30 8 1 5 9
M  V30 9 1 7 10
M  V30 10 2 8 11
M  V30 11 1 9 12
M  V30 12 2 10 13
M  V30 13 1 10 14
M  V30 14 2 12 15
M  V30 15 1 12 16
M  V30 16 1 16 17
M  V30 17 2 16 18
M  V30 18 1 17 19
M  V30 19 2 17 20
M  V30 20 1 18 21
M  V30 21 2 19 22
M  V30 22 1 20 23
M  V30 23 1 21 24
M  V30 24 1 22 25
M  V30 25 2 24 26
M  V30 26 1 24 27
M  V30 27 1 5 8
M  V30 28 2 6 7
M  V30 29 1 22 23
M  V30 30 1 2 28
M  V30 31 1 3 29
M  V30 32 1 3 30
M  V30 33 1 5 31
M  V30 34 1 6 32
M  V30 35 1 9 33
M  V30 36 1 14 34
M  V30 37 1 18 35
M  V30 38 1 20 36
M  V30 39 1 21 37
M  V30 40 1 21 38
M  V30 41 1 25 39
M  V30 42 1 25 40
M  V30 43 1 27 41
M  V30 END BOND
M  V30 BEGIN COLLECTION
M  V30 MDLV30/STEABS ATOMS=(2 2 5)
M  V30 END COLLECTION
M  V30 END CTAB
M  END
>  <level_0>
2352

>  <index>
2352

>  <NO.>
2353

>  <Name>
ceftibuten

>  <SMILES>
Nc1nc(/C(=C/CC(=O)O)C(=O)N[C@@H]2C(=O)N3C(C(=O)O)=CCS[C@H]23)cs1

>  <logBB>


>  <Class>
-1

>  <MW>
410.04

>  <nHBAcc>
8

>  <nHBDon>
4

>  <SLogP>
-0.05

>  <TopoPSA>
162.92

>  <MMFF94 Energy>
-40.526

$$$$
Nc1nc2c(ncn2CC[C@@H](O)CO)c(=O)[nH]1
Actelion Java MolfileCreator 2.0

  0  0  0  0  0  0              0 V3000
M  V30 BEGIN CTAB
M  V30 COUNTS 30 31 0 0 0
M  V30 BEGIN ATOM
M  V30 1 O 4.7152 0.0 -0.6277 0
M  V30 2 C 3.5964 -0.0231 -0.1247 0
M  V30 3 N 3.2648 -0.9162 0.8862 0
M  V30 4 C 2.4853 0.8299 -0.4838 0
M  V30 5 C 2.0237 -1.0009 1.4867 0
M  V30 6 N 2.3854 1.8246 -1.4237 0
M  V30 7 C 1.2995 0.6556 0.1928 0
M  V30 8 N 1.0089 -0.239 1.1696 0
M  V30 9 N 1.8842 -1.938 2.4485 0
M  V30 10 C 1.1462 2.2601 -1.3105 0
M  V30 11 N 0.4487 1.5778 -0.3467 0
M  V30 12 C -0.9193 1.8249 0.0497 0
M  V30 13 C -1.9505 1.0091 -0.7311 0
M  V30 14 C -1.7982 -0.5125 -0.5976 0 CFG=1
M  V30 15 O -1.7647 -0.8788 0.7869 0
M  V30 16 C -2.9738 -1.2581 -1.2424 0
M  V30 17 O -4.1833 -0.9624 -0.545 0
M  V30 18 H 4.0103 -1.5285 1.1686 0
M  V30 19 H 2.6266 -2.5529 2.7447 0
M  V30 20 H 0.9889 -2.0194 2.9151 0
M  V30 21 H 0.707 3.0592 -1.8946 0
M  V30 22 H -0.9996 1.642 1.1272 0
M  V30 23 H -1.1106 2.8946 -0.0995 0
M  V30 24 H -1.9105 1.2802 -1.7934 0
M  V30 25 H -2.938 1.3126 -0.3616 0
M  V30 26 H -0.8725 -0.854 -1.0733 0
M  V30 27 H -0.84 -0.7296 1.0858 0
M  V30 28 H -2.8199 -2.34 -1.1764 0
M  V30 29 H -3.0971 -0.9834 -2.294 0
M  V30 30 H -3.9485 -1.0508 0.4009 0
M  V30 END ATOM
M  V30 BEGIN BOND
M  V30 1 2 1 2
M  V30 2 1 2 3
M  V30 3 1 2 4
M  V30 4 1 3 5
M  V30 5 1 4 6
M  V30 6 2 4 7
M  V30 7 2 5 8
M  V30 8 1 5 9
M  V30 9 2 6 10
M  V30 10 1 7 11
M  V30 11 1 11 12
M  V30 12 1 12 13
M  V30 13 1 13 14
M  V30 14 1 14 15
M  V30 15 1 14 16
M  V30 16 1 16 17
M  V30 17 1 7 8
M  V30 18 1 10 11
M  V30 19 1 3 18
M  V30 20 1 9 19
M  V30 21 1 9 20
M  V30 22 1 10 21
M  V30 23 1 12 22
M  V30 24 1 12 23
M  V30 25 1 13 24
M  V30 26 1 13 25
M  V30 27 1 14 26
M  V30 28 1 15 27
M  V30 29 1 16 28
M  V30 30 1 16 29
M  V30 31 1 17 30
M  V30 END BOND
M  V30 BEGIN COLLECTION
M  V30 MDLV30/STEABS ATOMS=(1 14)
M  V30 END COLLECTION
M  V30 END CTAB
M  END
>  <level_0>
2355

>  <index>
2355

>  <NO.>
2356

>  <Name>
buciclovir

>  <SMILES>
Nc1nc2c(ncn2CC[C@@H](O)CO)c(=O)[nH]1

>  <logBB>


>  <Class>
1

>  <MW>
239.1

>  <nHBAcc>
6

>  <nHBDon>
4

>  <SLogP>
-1.55

>  <TopoPSA>
130.05

>  <MMFF94 Energy>
-57.774

$$$$
Nc1nc2ncc(CNc3ccc(C(=O)N[C@@H](CCC(=O)O)C(=O)O)cc3)nc2c(=O)[nH]1
Actelion Java MolfileCreator 2.0

  0  0  0  0  0  0              0 V3000
M  V30 BEGIN CTAB
M  V30 COUNTS 51 53 0 0 0
M  V30 BEGIN ATOM
M  V30 1 O 2.9416 4.2954 5.7304 0
M  V30 2 C 3.6679 3.4902 5.1582 0
M  V30 3 N 5.0241 3.7043 5.0525 0
M  V30 4 C 3.1752 2.2437 4.5422 0
M  V30 5 C 5.8843 2.8479 4.4303 0
M  V30 6 N 1.8482 1.9456 4.6016 0
M  V30 7 C 4.1281 1.4389 3.9299 0
M  V30 8 N 5.4939 1.7469 3.878 0
M  V30 9 N 7.1852 3.1991 4.4121 0
M  V30 10 C 1.4985 0.7756 4.0041 0
M  V30 11 N 3.7743 0.2783 3.3339 0
M  V30 12 C 2.4513 -0.0256 3.3756 0
M  V30 13 C 0.0392 0.3846 4.0013 0
M  V30 14 N -0.6132 0.8359 2.7839 0
M  V30 15 C -0.8187 0.0996 1.6377 0
M  V30 16 C -0.6294 -1.2823 1.5506 0
M  V30 17 C -1.2787 0.761 0.489 0
M  V30 18 C -0.8624 -1.9754 0.3552 0
M  V30 19 C -1.5148 0.08 -0.7122 0
M  V30 20 C -1.292 -1.2956 -0.787 0
M  V30 21 C -1.5277 -2.0798 -2.0308 0
M  V30 22 O -1.7683 -3.2799 -1.9698 0
M  V30 23 N -1.4336 -1.3965 -3.2204 0
M  V30 24 C -1.637 -2.0535 -4.511 0 CFG=2
M  V30 25 C -1.0345 -1.1676 -5.5989 0
M  V30 26 C -3.1119 -2.3576 -4.7973 0
M  V30 27 O -0.7661 0.0202 -5.4842 0
M  V30 28 O -0.8283 -1.8102 -6.7635 0
M  V30 29 C -4.0208 -1.1278 -4.7219 0
M  V30 30 C -5.4485 -1.4828 -5.0357 0
M  V30 31 O -5.86 -2.4974 -5.57 0
M  V30 32 O -6.2999 -0.499 -4.6849 0
M  V30 33 H 5.3646 4.5545 5.4722 0
M  V30 34 H 7.5526 4.0428 4.8233 0
M  V30 35 H 7.8322 2.5696 3.9515 0
M  V30 36 H 2.177 -0.9485 2.8747 0
M  V30 37 H -0.4466 0.886 4.8475 0
M  V30 38 H -0.0803 -0.6867 4.1911 0
M  V30 39 H -0.7563 1.8399 2.7326 0
M  V30 40 H -0.3109 -1.8649 2.4085 0
M  V30 41 H -1.4647 1.8329 0.5204 0
M  V30 42 H -0.7089 -3.0527 0.3231 0
M  V30 43 H -1.896 0.6418 -1.5592 0
M  V30 44 H -1.114 -0.4339 -3.2421 0
M  V30 45 H -1.062 -2.9874 -4.4903 0
M  V30 46 H -3.2015 -2.8147 -5.7912 0
M  V30 47 H -3.4759 -3.1082 -4.0841 0
M  V30 48 H -0.4419 -1.1337 -7.3587 0
M  V30 49 H -3.9912 -0.7045 -3.7119 0
M  V30 50 H -3.7022 -0.3635 -5.4379 0
M  V30 51 H -7.1805 -0.8457 -4.941 0
M  V30 END ATOM
M  V30 BEGIN BOND
M  V30 1 2 1 2
M  V30 2 1 2 3
M  V30 3 1 2 4
M  V30 4 1 3 5
M  V30 5 2 4 6
M  V30 6 1 4 7
M  V30 7 2 5 8
M  V30 8 1 5 9
M  V30 9 1 6 10
M  V30 10 2 7 11
M  V30 11 2 10 12
M  V30 12 1 10 13
M  V30 13 1 13 14
M  V30 14 1 14 15
M  V30 15 2 15 16
M  V30 16 1 15 17
M  V30 17 1 16 18
M  V30 18 2 17 19
M  V30 19 2 18 20
M  V30 20 1 20 21
M  V30 21 2 21 22
M  V30 22 1 21 23
M  V30 23 1 23 24
M  V30 24 1 24 25
M  V30 25 1 24 26
M  V30 26 2 25 27
M  V30 27 1 25 28
M  V30 28 1 26 29
M  V30 29 1 29 30
M  V30 30 2 30 31
M  V30 31 1 30 32
M  V30 32 1 7 8
M  V30 33 1 11 12
M  V30 34 1 19 20
M  V30 35 1 3 33
M  V30 36 1 9 34
M  V30 37 1 9 35
M  V30 38 1 12 36
M  V30 39 1 13 37
M  V30 40 1 13 38
M  V30 41 1 14 39
M  V30 42 1 16 40
M  V30 43 1 17 41
M  V30 44 1 18 42
M  V30 45 1 19 43
M  V30 46 1 23 44
M  V30 47 1 24 45
M  V30 48 1 26 46
M  V30 49 1 26 47
M  V30 50 1 28 48
M  V30 51 1 29 49
M  V30 52 1 29 50
M  V30 53 1 32 51
M  V30 END BOND
M  V30 BEGIN COLLECTION
M  V30 MDLV30/STEABS ATOMS=(1 24)
M  V30 END COLLECTION
M  V30 END CTAB
M  END
>  <level_0>
2356

>  <index>
2356

>  <NO.>
2357

>  <Name>
folic acid

>  <SMILES>
Nc1nc2ncc(CNc3ccc(C(=O)N[C@@H](CCC(=O)O)C(=O)O)cc3)nc2c(=O)[nH]1

>  <logBB>


>  <Class>
1

>  <MW>
441.14

>  <nHBAcc>
9

>  <nHBDon>
6

>  <SLogP>
-0.04

>  <TopoPSA>
213.28

>  <MMFF94 Energy>
-18.06

$$$$
Nc1ncc2ncn(COCCO)c2n1
Actelion Java MolfileCreator 2.0

  0  0  0  0  0  0              0 V3000
M  V30 BEGIN CTAB
M  V30 COUNTS 26 27 0 0 0
M  V30 BEGIN ATOM
M  V30 1 O -1.1785 1.1785 -1.493 0
M  V30 2 C -1.2667 -0.2223 -1.2403 0
M  V30 3 C 0.1747 1.6533 -1.4651 0
M  V30 4 N -1.2361 -0.4606 0.1839 0
M  V30 5 C 0.1958 3.1222 -1.8807 0
M  V30 6 C -0.2929 -1.1745 0.8652 0
M  V30 7 C -2.1641 -0.025 1.0921 0
M  V30 8 O -0.0158 3.2312 -3.2875 0
M  V30 9 N 0.8002 -1.7798 0.3749 0
M  V30 10 C -0.7089 -1.1353 2.1855 0
M  V30 11 N -1.8754 -0.42 2.3158 0
M  V30 12 C 1.512 -2.392 1.3352 0
M  V30 13 C 0.1018 -1.8011 3.0931 0
M  V30 14 N 1.2211 -2.431 2.6491 0
M  V30 15 N 2.6462 -3.0421 0.9456 0
M  V30 16 H -0.4749 -0.784 -1.7464 0
M  V30 17 H -2.2356 -0.5786 -1.6051 0
M  V30 18 H 0.7839 1.06 -2.1561 0
M  V30 19 H 0.5661 1.5572 -0.4472 0
M  V30 20 H -0.5947 3.6822 -1.3711 0
M  V30 21 H 1.1685 3.5681 -1.6538 0
M  V30 22 H -3.019 0.5751 0.8054 0
M  V30 23 H -0.1424 4.1754 -3.4823 0
M  V30 24 H -0.109 -1.8478 4.1531 0
M  V30 25 H 2.887 -3.0459 -0.0287 0
M  V30 26 H 3.1792 -3.5127 1.656 0
M  V30 END ATOM
M  V30 BEGIN BOND
M  V30 1 1 1 2
M  V30 2 1 1 3
M  V30 3 1 2 4
M  V30 4 1 3 5
M  V30 5 1 4 6
M  V30 6 1 4 7
M  V30 7 1 5 8
M  V30 8 2 6 9
M  V30 9 1 6 10
M  V30 10 2 7 11
M  V30 11 1 9 12
M  V30 12 2 10 13
M  V30 13 2 12 14
M  V30 14 1 12 15
M  V30 15 1 10 11
M  V30 16 1 13 14
M  V30 17 1 2 16
M  V30 18 1 2 17
M  V30 19 1 3 18
M  V30 20 1 3 19
M  V30 21 1 5 20
M  V30 22 1 5 21
M  V30 23 1 7 22
M  V30 24 1 8 23
M  V30 25 1 13 24
M  V30 26 1 15 25
M  V30 27 1 15 26
M  V30 END BOND
M  V30 END CTAB
M  END
>  <level_0>
2357

>  <index>
2357

>  <NO.>
2358

>  <Name>
desciclovir

>  <SMILES>
Nc1ncc2ncn(COCCO)c2n1

>  <logBB>


>  <Class>
1

>  <MW>
209.09

>  <nHBAcc>
6

>  <nHBDon>
2

>  <SLogP>
-0.63

>  <TopoPSA>
99.08

>  <MMFF94 Energy>
-34.311

$$$$
O=C(CCCN1CCC(C(=O)c2ccc(Cl)cc2)CC1)c1ccc(F)cc1
Actelion Java MolfileCreator 2.0

  0  0  0  0  0  0              0 V3000
M  V30 BEGIN CTAB
M  V30 COUNTS 50 52 0 0 0
M  V30 BEGIN ATOM
M  V30 1 Cl 4.441 -8.0047 -1.129 0
M  V30 2 C 4.081 -6.4627 -0.4589 0
M  V30 3 C 5.1028 -5.5419 -0.2481 0
M  V30 4 C 2.7661 -6.1414 -0.127 0
M  V30 5 C 4.805 -4.2896 0.297 0
M  V30 6 C 2.4665 -4.8875 0.4192 0
M  V30 7 C 3.4844 -3.9487 0.6315 0
M  V30 8 C 3.2345 -2.5912 1.2156 0
M  V30 9 O 4.2053 -1.9185 1.5617 0
M  V30 10 C 1.8033 -2.0761 1.3621 0
M  V30 11 C 1.7519 -0.8598 2.2953 0
M  V30 12 C 1.2249 -1.6838 0.0014 0
M  V30 13 C 0.339 -0.2858 2.3752 0
M  V30 14 C -0.1716 -1.0742 0.1415 0
M  V30 15 N -0.1672 0.0861 1.0434 0
M  V30 16 C -1.4996 0.7017 1.1701 0
M  V30 17 C -1.9764 1.3668 -0.126 0
M  V30 18 C -3.249 2.1748 0.1102 0
M  V30 19 C -3.7734 2.7443 -1.1912 0
M  V30 20 O -4.5455 2.0904 -1.8918 0
M  V30 21 C -3.3486 4.1062 -1.6397 0
M  V30 22 C -4.0129 4.6757 -2.7388 0
M  V30 23 C -2.3171 4.8225 -1.0165 0
M  V30 24 C -3.658 5.9444 -3.202 0
M  V30 25 C -1.9641 6.0926 -1.4839 0
M  V30 26 C -2.6373 6.6415 -2.5691 0
M  V30 27 F -2.2945 7.8579 -3.0112 0
M  V30 28 H 6.1306 -5.7876 -0.5023 0
M  V30 29 H 1.9691 -6.8632 -0.2887 0
M  V30 30 H 5.6133 -3.5775 0.4591 0
M  V30 31 H 1.4317 -4.6792 0.6711 0
M  V30 32 H 1.1941 -2.8603 1.8262 0
M  V30 33 H 2.0896 -1.1447 3.2993 0
M  V30 34 H 2.4399 -0.0783 1.9458 0
M  V30 35 H 1.168 -2.5528 -0.6631 0
M  V30 36 H 1.8919 -0.9655 -0.4944 0
M  V30 37 H -0.329 -1.0126 2.8558 0
M  V30 38 H 0.373 0.6004 3.0205 0
M  V30 39 H -0.4935 -0.7794 -0.8625 0
M  V30 40 H -0.8728 -1.8403 0.4974 0
M  V30 41 H -1.4533 1.4829 1.9403 0
M  V30 42 H -2.2398 -0.0348 1.5086 0
M  V30 43 H -2.1746 0.612 -0.8957 0
M  V30 44 H -1.1894 2.0201 -0.5216 0
M  V30 45 H -3.0997 2.9687 0.8485 0
M  V30 46 H -4.0362 1.5322 0.5247 0
M  V30 47 H -4.8122 4.1315 -3.2398 0
M  V30 48 H -1.7624 4.4166 -0.1762 0
M  V30 49 H -4.1696 6.3881 -4.0502 0
M  V30 50 H -1.1649 6.6553 -1.0107 0
M  V30 END ATOM
M  V30 BEGIN BOND
M  V30 1 1 1 2
M  V30 2 2 2 3
M  V30 3 1 2 4
M  V30 4 1 3 5
M  V30 5 2 4 6
M  V30 6 2 5 7
M  V30 7 1 7 8
M  V30 8 2 8 9
M  V30 9 1 8 10
M  V30 10 1 10 11
M  V30 11 1 10 12
M  V30 12 1 11 13
M  V30 13 1 12 14
M  V30 14 1 13 15
M  V30 15 1 15 16
M  V30 16 1 16 17
M  V30 17 1 17 18
M  V30 18 1 18 19
M  V30 19 2 19 20
M  V30 20 1 19 21
M  V30 21 2 21 22
M  V30 22 1 21 23
M  V30 23 1 22 24
M  V30 24 2 23 25
M  V30 25 2 24 26
M  V30 26 1 26 27
M  V30 27 1 6 7
M  V30 28 1 14 15
M  V30 29 1 25 26
M  V30 30 1 3 28
M  V30 31 1 4 29
M  V30 32 1 5 30
M  V30 33 1 6 31
M  V30 34 1 10 32
M  V30 35 1 11 33
M  V30 36 1 11 34
M  V30 37 1 12 35
M  V30 38 1 12 36
M  V30 39 1 13 37
M  V30 40 1 13 38
M  V30 41 1 14 39
M  V30 42 1 14 40
M  V30 43 1 16 41
M  V30 44 1 16 42
M  V30 45 1 17 43
M  V30 46 1 17 44
M  V30 47 1 18 45
M  V30 48 1 18 46
M  V30 49 1 22 47
M  V30 50 1 23 48
M  V30 51 1 24 49
M  V30 52 1 25 50
M  V30 END BOND
M  V30 END CTAB
M  END
>  <level_0>
2363

>  <index>
2363

>  <NO.>
2364

>  <Name>
cloroperone

>  <SMILES>
O=C(CCCN1CCC(C(=O)c2ccc(Cl)cc2)CC1)c1ccc(F)cc1

>  <logBB>


>  <Class>
1

>  <MW>
387.14

>  <nHBAcc>
3

>  <nHBDon>
0

>  <SLogP>
5.04

>  <TopoPSA>
37.38

>  <MMFF94 Energy>
67.921

$$$$
O=C(CCCN1CCC(O)(c2ccc(Cl)c(C(F)(F)F)c2)CC1)c1ccc(F)cc1
Actelion Java MolfileCreator 2.0

  0  0  0  0  0  0              0 V3000
M  V30 BEGIN CTAB
M  V30 COUNTS 52 54 0 0 0
M  V30 BEGIN ATOM
M  V30 1 Cl 5.5397 -2.9299 6.1929 0
M  V30 2 C 4.3414 -2.1527 5.2241 0
M  V30 3 C 4.4964 -0.8475 4.7531 0
M  V30 4 C 3.1879 -2.8783 4.919 0
M  V30 5 C 3.4637 -0.2913 3.97 0
M  V30 6 C 5.7269 -0.0388 5.0646 0
M  V30 7 C 2.1734 -2.3122 4.1403 0
M  V30 8 C 2.2891 -1.0061 3.649 0
M  V30 9 F 6.8734 -0.6085 4.602 0
M  V30 10 F 5.6992 1.2103 4.5137 0
M  V30 11 F 5.9069 0.1638 6.3991 0
M  V30 12 C 1.2128 -0.3323 2.788 0
M  V30 13 O 0.9489 0.9488 3.3877 0
M  V30 14 C -0.1289 -1.0807 2.7161 0
M  V30 15 C 1.7338 -0.1011 1.3609 0
M  V30 16 C -1.116 -0.3859 1.7769 0
M  V30 17 C 0.675 0.5288 0.4521 0
M  V30 18 N -0.5584 -0.2746 0.4191 0
M  V30 19 C -1.5672 0.3039 -0.4868 0
M  V30 20 C -1.1738 0.2148 -1.9669 0
M  V30 21 C -2.327 0.6649 -2.8681 0
M  V30 22 C -1.9573 0.6148 -4.3416 0
M  V30 23 O -0.8347 0.2965 -4.7277 0
M  V30 24 C -2.9989 0.9724 -5.3549 0
M  V30 25 C -2.6617 0.887 -6.7159 0
M  V30 26 C -4.2885 1.3881 -4.9924 0
M  V30 27 C -3.5991 1.2105 -7.6994 0
M  V30 28 C -5.2241 1.7111 -5.9805 0
M  V30 29 C -4.8716 1.6193 -7.3222 0
M  V30 30 F -5.7724 1.9302 -8.2629 0
M  V30 31 H 3.0695 -3.8967 5.2845 0
M  V30 32 H 3.5741 0.7306 3.5991 0
M  V30 33 H 1.3006 -2.9252 3.9301 0
M  V30 34 H 0.8895 0.8103 4.3494 0
M  V30 35 H 0.0165 -2.1071 2.3558 0
M  V30 36 H -0.585 -1.1427 3.7125 0
M  V30 37 H 2.6041 0.5672 1.3676 0
M  V30 38 H 2.0655 -1.0529 0.9239 0
M  V30 39 H -1.3946 0.5992 2.1735 0
M  V30 40 H -2.0308 -0.9913 1.7518 0
M  V30 41 H 1.1155 0.5935 -0.5482 0
M  V30 42 H 0.4642 1.556 0.7776 0
M  V30 43 H -1.7802 1.347 -0.218 0
M  V30 44 H -2.5064 -0.2519 -0.3659 0
M  V30 45 H -0.8947 -0.8164 -2.2176 0
M  V30 46 H -0.2993 0.8426 -2.1715 0
M  V30 47 H -2.6015 1.6953 -2.6152 0
M  V30 48 H -3.1882 0.0078 -2.7023 0
M  V30 49 H -1.6648 0.567 -7.016 0
M  V30 50 H -4.5922 1.4715 -3.9532 0
M  V30 51 H -3.3424 1.1455 -8.7522 0
M  V30 52 H -6.2258 2.0344 -5.7126 0
M  V30 END ATOM
M  V30 BEGIN BOND
M  V30 1 1 1 2
M  V30 2 2 2 3
M  V30 3 1 2 4
M  V30 4 1 3 5
M  V30 5 1 3 6
M  V30 6 2 4 7
M  V30 7 2 5 8
M  V30 8 1 6 9
M  V30 9 1 6 10
M  V30 10 1 6 11
M  V30 11 1 8 12
M  V30 12 1 12 13
M  V30 13 1 12 14
M  V30 14 1 12 15
M  V30 15 1 14 16
M  V30 16 1 15 17
M  V30 17 1 16 18
M  V30 18 1 18 19
M  V30 19 1 19 20
M  V30 20 1 20 21
M  V30 21 1 21 22
M  V30 22 2 22 23
M  V30 23 1 22 24
M  V30 24 2 24 25
M  V30 25 1 24 26
M  V30 26 1 25 27
M  V30 27 2 26 28
M  V30 28 2 27 29
M  V30 29 1 29 30
M  V30 30 1 7 8
M  V30 31 1 17 18
M  V30 32 1 28 29
M  V30 33 1 4 31
M  V30 34 1 5 32
M  V30 35 1 7 33
M  V30 36 1 13 34
M  V30 37 1 14 35
M  V30 38 1 14 36
M  V30 39 1 15 37
M  V30 40 1 15 38
M  V30 41 1 16 39
M  V30 42 1 16 40
M  V30 43 1 17 41
M  V30 44 1 17 42
M  V30 45 1 19 43
M  V30 46 1 19 44
M  V30 47 1 20 45
M  V30 48 1 20 46
M  V30 49 1 21 47
M  V30 50 1 21 48
M  V30 51 1 25 49
M  V30 52 1 26 50
M  V30 53 1 27 51
M  V30 54 1 28 52
M  V30 END BOND
M  V30 END CTAB
M  END
>  <level_0>
2365

>  <index>
2365

>  <NO.>
2366

>  <Name>
clofluperol

>  <SMILES>
O=C(CCCN1CCC(O)(c2ccc(Cl)c(C(F)(F)F)c2)CC1)c1ccc(F)cc1

>  <logBB>


>  <Class>
1

>  <MW>
443.13

>  <nHBAcc>
3

>  <nHBDon>
1

>  <SLogP>
5.44

>  <TopoPSA>
40.54

>  <MMFF94 Energy>
64.099

$$$$
O=C(CCCN1CCC(n2c(=S)[nH]c3ccccc32)CC1)c1ccc(F)cc1
Actelion Java MolfileCreator 2.0

  0  0  0  0  0  0              0 V3000
M  V30 BEGIN CTAB
M  V30 COUNTS 52 55 0 0 0
M  V30 BEGIN ATOM
M  V30 1 S 1.6104 -4.1911 -4.9986 0
M  V30 2 C 1.5531 -2.5618 -4.7015 0
M  V30 3 N 1.0389 -1.8523 -3.583 0
M  V30 4 N 2.0494 -1.6095 -5.6017 0
M  V30 5 C 1.2325 -0.4714 -3.8286 0
M  V30 6 C 0.4191 -2.4339 -2.3917 0
M  V30 7 C 1.8547 -0.3417 -5.0718 0
M  V30 8 C 0.9224 0.6487 -3.0853 0
M  V30 9 C 1.2116 -2.1703 -1.1059 0
M  V30 10 C -1.0621 -2.0676 -2.2433 0
M  V30 11 C 2.1917 0.8745 -5.6233 0
M  V30 12 C 1.2538 1.9009 -3.6209 0
M  V30 13 C 0.5106 -2.8103 0.0931 0
M  V30 14 C -1.6505 -2.7068 -0.984 0
M  V30 15 C 1.8821 2.0127 -4.8768 0
M  V30 16 N -0.8953 -2.4089 0.2432 0
M  V30 17 C -1.0967 -1.0237 0.6913 0
M  V30 18 C -0.5396 -0.7502 2.0944 0
M  V30 19 C -0.9705 0.631 2.5961 0
M  V30 20 C -0.3864 0.9529 3.9619 0
M  V30 21 O 0.4261 0.2182 4.519 0
M  V30 22 C -0.8079 2.2169 4.6429 0
M  V30 23 C -0.3167 2.4742 5.9336 0
M  V30 24 C -1.6663 3.1464 4.0376 0
M  V30 25 C -0.6798 3.6409 6.6101 0
M  V30 26 C -2.0274 4.3133 4.7185 0
M  V30 27 C -1.5322 4.5494 5.9961 0
M  V30 28 F -1.8817 5.669 6.6419 0
M  V30 29 H 2.4764 -1.83 -6.4881 0
M  V30 30 H 0.4385 -3.5218 -2.5286 0
M  V30 31 H 0.4405 0.5901 -2.1191 0
M  V30 32 H 1.3452 -1.1001 -0.9237 0
M  V30 33 H 2.2206 -2.5895 -1.2038 0
M  V30 34 H -1.6181 -2.4169 -3.1221 0
M  V30 35 H -1.2068 -0.9838 -2.2059 0
M  V30 36 H 2.6746 0.9505 -6.5896 0
M  V30 37 H 1.0236 2.8036 -3.0583 0
M  V30 38 H 1.0814 -2.6134 1.0063 0
M  V30 39 H 0.5428 -3.9022 -0.0216 0
M  V30 40 H -1.6796 -3.7964 -1.1166 0
M  V30 41 H -2.6986 -2.4035 -0.87 0
M  V30 42 H 2.1283 2.9979 -5.2674 0
M  V30 43 H -2.176 -0.8253 0.7235 0
M  V30 44 H -0.6686 -0.3033 -0.0146 0
M  V30 45 H 0.5551 -0.7994 2.0853 0
M  V30 46 H -0.8915 -1.5178 2.7952 0
M  V30 47 H -2.0636 0.6579 2.6666 0
M  V30 48 H -0.6327 1.3965 1.8886 0
M  V30 49 H 0.3519 1.7646 6.4188 0
M  V30 50 H -2.0663 2.9912 3.0403 0
M  V30 51 H -0.303 3.843 7.6079 0
M  V30 52 H -2.6917 5.0406 4.261 0
M  V30 END ATOM
M  V30 BEGIN BOND
M  V30 1 2 1 2
M  V30 2 1 2 3
M  V30 3 1 2 4
M  V30 4 1 3 5
M  V30 5 1 3 6
M  V30 6 1 4 7
M  V30 7 1 5 8
M  V30 8 1 6 9
M  V30 9 1 6 10
M  V30 10 1 7 11
M  V30 11 2 8 12
M  V30 12 1 9 13
M  V30 13 1 10 14
M  V30 14 2 11 15
M  V30 15 1 13 16
M  V30 16 1 16 17
M  V30 17 1 17 18
M  V30 18 1 18 19
M  V30 19 1 19 20
M  V30 20 2 20 21
M  V30 21 1 20 22
M  V30 22 2 22 23
M  V30 23 1 22 24
M  V30 24 1 23 25
M  V30 25 2 24 26
M  V30 26 2 25 27
M  V30 27 1 27 28
M  V30 28 2 5 7
M  V30 29 1 12 15
M  V30 30 1 14 16
M  V30 31 1 26 27
M  V30 32 1 4 29
M  V30 33 1 6 30
M  V30 34 1 8 31
M  V30 35 1 9 32
M  V30 36 1 9 33
M  V30 37 1 10 34
M  V30 38 1 10 35
M  V30 39 1 11 36
M  V30 40 1 12 37
M  V30 41 1 13 38
M  V30 42 1 13 39
M  V30 43 1 14 40
M  V30 44 1 14 41
M  V30 45 1 15 42
M  V30 46 1 17 43
M  V30 47 1 17 44
M  V30 48 1 18 45
M  V30 49 1 18 46
M  V30 50 1 19 47
M  V30 51 1 19 48
M  V30 52 1 23 49
M  V30 53 1 24 50
M  V30 54 1 25 51
M  V30 55 1 26 52
M  V30 END BOND
M  V30 END CTAB
M  END
>  <level_0>
2368

>  <index>
2368

>  <NO.>
2369

>  <Name>
timiperone

>  <SMILES>
O=C(CCCN1CCC(n2c(=S)[nH]c3ccccc32)CC1)c1ccc(F)cc1

>  <logBB>


>  <Class>
1

>  <MW>
397.16

>  <nHBAcc>
3

>  <nHBDon>
1

>  <SLogP>
5.14

>  <TopoPSA>
41.03

>  <MMFF94 Energy>
34.244

$$$$
O=C(CN1CCCC1=O)NNC(=O)CN1CCCC1=O
Actelion Java MolfileCreator 2.0

  0  0  0  0  0  0              0 V3000
M  V30 BEGIN CTAB
M  V30 COUNTS 38 39 0 0 0
M  V30 BEGIN ATOM
M  V30 1 O 3.2446 -0.2371 1.4234 0
M  V30 2 C 3.4188 -1.4287 1.2241 0
M  V30 3 N 2.425 -2.3896 1.2195 0
M  V30 4 C 4.7105 -2.0945 0.8222 0
M  V30 5 C 2.8918 -3.6575 0.7234 0
M  V30 6 C 1.0187 -2.0859 1.4196 0
M  V30 7 C 4.3892 -3.5803 0.9607 0
M  V30 8 C 0.4043 -1.5426 0.1317 0
M  V30 9 O -0.3514 -2.2069 -0.5735 0
M  V30 10 N 0.794 -0.2428 -0.1534 0
M  V30 11 N 0.3869 0.3648 -1.3374 0
M  V30 12 C -0.8406 0.959 -1.518 0
M  V30 13 O -1.1178 1.4438 -2.6182 0
M  V30 14 C -1.8276 0.9243 -0.3443 0
M  V30 15 N -2.8176 1.9844 -0.4345 0
M  V30 16 C -2.7004 3.2085 0.1958 0
M  V30 17 C -3.9847 1.896 -1.2735 0
M  V30 18 O -1.8141 3.5518 0.96 0
M  V30 19 C -3.9056 4.0311 -0.1848 0
M  V30 20 C -4.3936 3.3457 -1.4565 0
M  V30 21 H 4.9337 -1.8312 -0.2161 0
M  V30 22 H 5.531 -1.7894 1.4756 0
M  V30 23 H 2.4273 -4.4833 1.2691 0
M  V30 24 H 2.6515 -3.7266 -0.3424 0
M  V30 25 H 0.4887 -2.9875 1.7404 0
M  V30 26 H 0.925 -1.3231 2.2007 0
M  V30 27 H 4.62 -3.9075 1.9824 0
M  V30 28 H 4.9618 -4.2065 0.271 0
M  V30 29 H 1.5014 0.2317 0.4177 0
M  V30 30 H 1.0149 0.3405 -2.1342 0
M  V30 31 H -1.282 1.0508 0.5956 0
M  V30 32 H -2.3436 -0.0405 -0.3331 0
M  V30 33 H -3.7576 1.41 -2.2259 0
M  V30 34 H -4.7471 1.3204 -0.7387 0
M  V30 35 H -4.6472 3.9654 0.6173 0
M  V30 36 H -3.6317 5.0736 -0.3626 0
M  V30 37 H -3.8698 3.7706 -2.322 0
M  V30 38 H -5.4678 3.4671 -1.622 0
M  V30 END ATOM
M  V30 BEGIN BOND
M  V30 1 2 1 2
M  V30 2 1 2 3
M  V30 3 1 2 4
M  V30 4 1 3 5
M  V30 5 1 3 6
M  V30 6 1 4 7
M  V30 7 1 6 8
M  V30 8 2 8 9
M  V30 9 1 8 10
M  V30 10 1 10 11
M  V30 11 1 11 12
M  V30 12 2 12 13
M  V30 13 1 12 14
M  V30 14 1 14 15
M  V30 15 1 15 16
M  V30 16 1 15 17
M  V30 17 2 16 18
M  V30 18 1 16 19
M  V30 19 1 17 20
M  V30 20 1 5 7
M  V30 21 1 19 20
M  V30 22 1 4 21
M  V30 23 1 4 22
M  V30 24 1 5 23
M  V30 25 1 5 24
M  V30 26 1 6 25
M  V30 27 1 6 26
M  V30 28 1 7 27
M  V30 29 1 7 28
M  V30 30 1 10 29
M  V30 31 1 11 30
M  V30 32 1 14 31
M  V30 33 1 14 32
M  V30 34 1 17 33
M  V30 35 1 17 34
M  V30 36 1 19 35
M  V30 37 1 19 36
M  V30 38 1 20 37
M  V30 39 1 20 38
M  V30 END BOND
M  V30 END CTAB
M  END
>  <level_0>
2380

>  <index>
2380

>  <NO.>
2381

>  <Name>
dupracetam

>  <SMILES>
O=C(CN1CCCC1=O)NNC(=O)CN1CCCC1=O

>  <logBB>


>  <Class>
1

>  <MW>
282.13

>  <nHBAcc>
4

>  <nHBDon>
2

>  <SLogP>
-1.62

>  <TopoPSA>
98.82

>  <MMFF94 Energy>
43.426

$$$$
O=C(CN1CC[C@H](c2ccc(F)cc2)[C@@H](COc2ccc3c(c2)OCO3)C1)c1ccc(F)cc1
Actelion Java MolfileCreator 2.0

  0  0  0  0  0  0              0 V3000
M  V30 BEGIN CTAB
M  V30 COUNTS 59 63 0 0 0
M  V30 BEGIN ATOM
M  V30 1 F -3.7198 -7.1253 5.3403 0
M  V30 2 C -3.5128 -5.953 4.7274 0
M  V30 3 C -4.0971 -4.8003 5.2357 0
M  V30 4 C -2.7171 -5.9076 3.5881 0
M  V30 5 C -3.8794 -3.5793 4.5935 0
M  V30 6 C -2.4963 -4.6869 2.9419 0
M  V30 7 C -3.0738 -3.511 3.4441 0
M  V30 8 C -2.8737 -2.1753 2.7966 0
M  V30 9 O -3.5742 -1.2372 3.1761 0
M  V30 10 C -1.8159 -2.0658 1.6894 0
M  V30 11 N -1.5404 -0.664 1.3007 0
M  V30 12 C -0.7898 -0.6222 0.0361 0
M  V30 13 C -0.8087 0.0508 2.3582 0
M  V30 14 C -0.5896 0.8251 -0.4547 0 CFG=1
M  V30 15 C -0.6096 1.5174 1.9798 0
M  V30 16 C 0.1308 1.6519 0.6385 0 CFG=2
M  V30 17 C 0.1704 0.8221 -1.7947 0
M  V30 18 C 0.3086 3.1146 0.2542 0
M  V30 19 O 1.4799 0.2828 -1.6025 0
M  V30 20 C 1.6021 3.6249 0.0491 0
M  V30 21 C -0.7918 3.9698 0.0742 0
M  V30 22 C 2.3192 0.2814 -2.6833 0
M  V30 23 C 1.7898 4.9577 -0.3202 0
M  V30 24 C -0.6018 5.303 -0.2935 0
M  V30 25 C 1.9891 0.6994 -3.975 0
M  V30 26 C 3.6163 -0.1985 -2.409 0
M  V30 27 C 0.6864 5.7844 -0.4867 0
M  V30 28 C 2.9703 0.625 -4.9439 0
M  V30 29 C 4.5906 -0.263 -3.4098 0
M  V30 30 F 0.867 7.0633 -0.8422 0
M  V30 31 O 2.8237 0.9879 -6.2474 0
M  V30 32 C 4.2342 0.1582 -4.6705 0
M  V30 33 C 4.1423 0.7024 -6.759 0
M  V30 34 O 5.041 0.1694 -5.7642 0
M  V30 35 H -4.7185 -4.856 6.1242 0
M  V30 36 H -2.2769 -6.825 3.2084 0
M  V30 37 H -4.3421 -2.6781 4.9943 0
M  V30 38 H -1.8805 -4.6883 2.0476 0
M  V30 39 H -2.2274 -2.6039 0.8265 0
M  V30 40 H -0.8889 -2.5554 2.01 0
M  V30 41 H -1.3504 -1.1669 -0.7344 0
M  V30 42 H 0.1764 -1.1313 0.1507 0
M  V30 43 H -1.3604 0.025 3.3041 0
M  V30 44 H 0.166 -0.4192 2.5444 0
M  V30 45 H -1.5819 1.2584 -0.6442 0
M  V30 46 H -1.5909 2.0076 1.9382 0
M  V30 47 H -0.0432 2.0231 2.7722 0
M  V30 48 H 1.1295 1.2178 0.7912 0
M  V30 49 H 0.2333 1.8447 -2.1852 0
M  V30 50 H -0.3783 0.2041 -2.5166 0
M  V30 51 H 2.4731 2.9833 0.1678 0
M  V30 52 H -1.8067 3.6047 0.2182 0
M  V30 53 H 2.7873 5.3533 -0.4809 0
M  V30 54 H -1.4497 5.9664 -0.4304 0
M  V30 55 H 1.0104 1.0739 -4.2448 0
M  V30 56 H 3.8635 -0.5226 -1.4005 0
M  V30 57 H 5.5888 -0.63 -3.2017 0
M  V30 58 H 4.0516 -0.024 -7.5747 0
M  V30 59 H 4.5712 1.6285 -7.1591 0
M  V30 END ATOM
M  V30 BEGIN BOND
M  V30 1 1 1 2
M  V30 2 2 2 3
M  V30 3 1 2 4
M  V30 4 1 3 5
M  V30 5 2 4 6
M  V30 6 2 5 7
M  V30 7 1 7 8
M  V30 8 2 8 9
M  V30 9 1 8 10
M  V30 10 1 10 11
M  V30 11 1 11 12
M  V30 12 1 11 13
M  V30 13 1 12 14
M  V30 14 1 13 15
M  V30 15 1 14 16
M  V30 16 1 14 17
M  V30 17 1 16 18
M  V30 18 1 17 19
M  V30 19 2 18 20
M  V30 20 1 18 21
M  V30 21 1 19 22
M  V30 22 1 20 23
M  V30 23 2 21 24
M  V30 24 2 22 25
M  V30 25 1 22 26
M  V30 26 2 23 27
M  V30 27 1 25 28
M  V30 28 2 26 29
M  V30 29 1 27 30
M  V30 30 1 28 31
M  V30 31 2 28 32
M  V30 32 1 31 33
M  V30 33 1 32 34
M  V30 34 1 6 7
M  V30 35 1 15 16
M  V30 36 1 24 27
M  V30 37 1 29 32
M  V30 38 1 33 34
M  V30 39 1 3 35
M  V30 40 1 4 36
M  V30 41 1 5 37
M  V30 42 1 6 38
M  V30 43 1 10 39
M  V30 44 1 10 40
M  V30 45 1 12 41
M  V30 46 1 12 42
M  V30 47 1 13 43
M  V30 48 1 13 44
M  V30 49 1 14 45
M  V30 50 1 15 46
M  V30 51 1 15 47
M  V30 52 1 16 48
M  V30 53 1 17 49
M  V30 54 1 17 50
M  V30 55 1 20 51
M  V30 56 1 21 52
M  V30 57 1 23 53
M  V30 58 1 24 54
M  V30 59 1 25 55
M  V30 60 1 26 56
M  V30 61 1 29 57
M  V30 62 1 33 58
M  V30 63 1 33 59
M  V30 END BOND
M  V30 BEGIN COLLECTION
M  V30 MDLV30/STEABS ATOMS=(2 14 16)
M  V30 END COLLECTION
M  V30 END CTAB
M  END
>  <level_0>
2381

>  <index>
2381

>  <NO.>
2382

>  <Name>
omiloxetine

>  <SMILES>
O=C(CN1CC[C@H](c2ccc(F)cc2)[C@@H](COc2ccc3c(c2)OCO3)C1)c1ccc(F)cc1

>  <logBB>


>  <Class>
1

>  <MW>
465.18

>  <nHBAcc>
5

>  <nHBDon>
0

>  <SLogP>
5.06

>  <TopoPSA>
48.0

>  <MMFF94 Energy>
106.58

$$$$
O=C(Cn1cnnn1)N[C@@H]1C(=O)N2C(C(=O)O)=C(CSc3nncs3)CS[C@H]12
Actelion Java MolfileCreator 2.0

  0  0  0  0  0  0              0 V3000
M  V30 BEGIN CTAB
M  V30 COUNTS 40 43 0 0 0
M  V30 BEGIN ATOM
M  V30 1 S 0.508 0.1693 -0.9315 0
M  V30 2 C 0.6811 0.9227 0.7076 0 CFG=1
M  V30 3 C -1.3093 0.3155 -0.9202 0
M  V30 4 N -0.0108 0.0727 1.6465 0
M  V30 5 C 1.9766 0.6333 1.5292 0 CFG=1
M  V30 6 C -1.9572 -0.2329 0.342 0
M  V30 7 C -1.29 -0.3648 1.5147 0
M  V30 8 C 1.0195 -0.1516 2.4845 0
M  V30 9 N 3.0475 -0.1803 0.8856 0
M  V30 10 C -3.3962 -0.6711 0.1431 0
M  V30 11 C -1.9191 -1.0013 2.706 0
M  V30 12 O 1.1356 -0.7973 3.4988 0
M  V30 13 C 3.9156 0.3825 -0.023 0
M  V30 14 S -4.5481 0.5984 0.744 0
M  V30 15 O -2.4993 -2.0702 2.7439 0
M  V30 16 O -1.81 -0.2078 3.7876 0
M  V30 17 O 3.8976 1.5825 -0.29 0
M  V30 18 C 4.9201 -0.5562 -0.6404 0
M  V30 19 C -4.754 1.6078 -0.6649 0
M  V30 20 N 4.2617 -1.605 -1.3706 0
M  V30 21 S -5.7754 2.987 -0.6738 0
M  V30 22 N -4.1382 1.3866 -1.8059 0
M  V30 23 N 3.9679 -2.7735 -0.7776 0
M  V30 24 C 3.8384 -1.6166 -2.6584 0
M  V30 25 C -5.3026 3.2226 -2.3043 0
M  V30 26 N -4.4504 2.3315 -2.7628 0
M  V30 27 N 3.3763 -3.493 -1.7216 0
M  V30 28 N 3.2912 -2.786 -2.8987 0
M  V30 29 H 0.3607 1.97 0.7616 0
M  V30 30 H -1.6592 -0.234 -1.7995 0
M  V30 31 H -1.5763 1.3691 -1.0484 0
M  V30 32 H 2.3984 1.5219 2.0152 0
M  V30 33 H 3.0703 -1.1881 1.0402 0
M  V30 34 H -3.6015 -0.9277 -0.9016 0
M  V30 35 H -3.6077 -1.5939 0.6889 0
M  V30 36 H -2.1841 -0.7455 4.5153 0
M  V30 37 H 5.5446 -1.0021 0.1401 0
M  V30 38 H 5.5637 -0.0077 -1.3353 0
M  V30 39 H 3.9396 -0.7926 -3.3489 0
M  V30 40 H -5.6725 4.0395 -2.9081 0
M  V30 END ATOM
M  V30 BEGIN BOND
M  V30 1 1 1 2
M  V30 2 1 1 3
M  V30 3 1 2 4
M  V30 4 1 2 5
M  V30 5 1 3 6
M  V30 6 1 4 7
M  V30 7 1 4 8
M  V30 8 1 5 9
M  V30 9 1 6 10
M  V30 10 1 7 11
M  V30 11 2 8 12
M  V30 12 1 9 13
M  V30 13 1 10 14
M  V30 14 2 11 15
M  V30 15 1 11 16
M  V30 16 2 13 17
M  V30 17 1 13 18
M  V30 18 1 14 19
M  V30 19 1 18 20
M  V30 20 1 19 21
M  V30 21 2 19 22
M  V30 22 1 20 23
M  V30 23 1 20 24
M  V30 24 1 21 25
M  V30 25 1 22 26
M  V30 26 2 23 27
M  V30 27 2 24 28
M  V30 28 1 5 8
M  V30 29 2 6 7
M  V30 30 2 25 26
M  V30 31 1 27 28
M  V30 32 1 2 29
M  V30 33 1 3 30
M  V30 34 1 3 31
M  V30 35 1 5 32
M  V30 36 1 9 33
M  V30 37 1 10 34
M  V30 38 1 10 35
M  V30 39 1 16 36
M  V30 40 1 18 37
M  V30 41 1 18 38
M  V30 42 1 24 39
M  V30 43 1 25 40
M  V30 END BOND
M  V30 BEGIN COLLECTION
M  V30 MDLV30/STEABS ATOMS=(2 2 5)
M  V30 END COLLECTION
M  V30 END CTAB
M  END
>  <level_0>
2398

>  <index>
2398

>  <NO.>
2399

>  <Name>
ceftezole

>  <SMILES>
O=C(Cn1cnnn1)N[C@@H]1C(=O)N2C(C(=O)O)=C(CSc3nncs3)CS[C@H]12

>  <logBB>


>  <Class>
-1

>  <MW>
440.01

>  <nHBAcc>
11

>  <nHBDon>
2

>  <SLogP>
-0.94

>  <TopoPSA>
156.09

>  <MMFF94 Energy>
-22.898

$$$$
O=C(Nc1ccccc1)OCC1(COC(=O)Nc2ccccc2)CCCC1
Actelion Java MolfileCreator 2.0

  0  0  0  0  0  0              0 V3000
M  V30 BEGIN CTAB
M  V30 COUNTS 51 53 0 0 0
M  V30 BEGIN ATOM
M  V30 1 O 1.4256 2.2975 -3.4875 0
M  V30 2 C 0.5937 1.4638 -3.1664 0
M  V30 3 O 0.6651 0.7253 -2.0244 0
M  V30 4 N -0.5395 1.0961 -3.8323 0
M  V30 5 C 1.808 1.0085 -1.2032 0
M  V30 6 C -1.0316 1.581 -5.0553 0
M  V30 7 C 1.8071 0.0895 0.0368 0
M  V30 8 C -0.3782 2.5414 -5.8298 0
M  V30 9 C -2.2484 1.0567 -5.5098 0
M  V30 10 C 1.9814 -1.3975 -0.3732 0
M  V30 11 C 3.0422 0.402 0.9218 0
M  V30 12 C 0.4874 0.2875 0.8154 0
M  V30 13 C -0.9333 2.9719 -7.0392 0
M  V30 14 C -2.8027 1.4871 -6.7181 0
M  V30 15 C 3.4223 -1.7484 -0.0285 0
M  V30 16 C 3.6838 -0.944 1.2297 0
M  V30 17 O 0.5121 -0.4747 2.0339 0
M  V30 18 C -2.1441 2.4457 -7.4832 0
M  V30 19 C -0.6257 -0.3928 2.776 0
M  V30 20 O -1.6012 0.2668 2.4541 0
M  V30 21 N -0.4527 -1.1617 3.8903 0
M  V30 22 C -1.3507 -1.387 4.9465 0
M  V30 23 C -2.6218 -0.8143 5.0211 0
M  V30 24 C -0.9288 -2.2375 5.9765 0
M  V30 25 C -3.4583 -1.088 6.1081 0
M  V30 26 C -1.7648 -2.5108 7.0623 0
M  V30 27 C -3.0308 -1.9353 7.1277 0
M  V30 28 H -1.0762 0.3869 -3.3538 0
M  V30 29 H 1.7701 2.0594 -0.8891 0
M  V30 30 H 2.7211 0.8466 -1.7902 0
M  V30 31 H 0.5673 2.9767 -5.5216 0
M  V30 32 H -2.7827 0.3084 -4.9305 0
M  V30 33 H 1.3094 -2.0505 0.1966 0
M  V30 34 H 1.7774 -1.5807 -1.4332 0
M  V30 35 H 2.7901 0.944 1.8395 0
M  V30 36 H 3.7654 1.0212 0.3762 0
M  V30 37 H 0.3594 1.3478 1.0674 0
M  V30 38 H -0.3653 -0.041 0.2086 0
M  V30 39 H -0.4149 3.7208 -7.6328 0
M  V30 40 H -3.748 1.0742 -7.0603 0
M  V30 41 H 4.0939 -1.4278 -0.8336 0
M  V30 42 H 3.5611 -2.822 0.1267 0
M  V30 43 H 4.7509 -0.8523 1.4512 0
M  V30 44 H 3.1947 -1.4121 2.0919 0
M  V30 45 H -2.5725 2.7833 -8.4232 0
M  V30 46 H 0.4488 -1.6146 3.9291 0
M  V30 47 H -2.9941 -0.1478 4.2493 0
M  V30 48 H 0.0545 -2.699 5.949 0
M  V30 49 H -4.4458 -0.6355 6.1547 0
M  V30 50 H -1.4271 -3.1722 7.8559 0
M  V30 51 H -3.6838 -2.1452 7.9708 0
M  V30 END ATOM
M  V30 BEGIN BOND
M  V30 1 2 1 2
M  V30 2 1 2 3
M  V30 3 1 2 4
M  V30 4 1 3 5
M  V30 5 1 4 6
M  V30 6 1 5 7
M  V30 7 2 6 8
M  V30 8 1 6 9
M  V30 9 1 7 10
M  V30 10 1 7 11
M  V30 11 1 7 12
M  V30 12 1 8 13
M  V30 13 2 9 14
M  V30 14 1 10 15
M  V30 15 1 11 16
M  V30 16 1 12 17
M  V30 17 2 13 18
M  V30 18 1 17 19
M  V30 19 2 19 20
M  V30 20 1 19 21
M  V30 21 1 21 22
M  V30 22 2 22 23
M  V30 23 1 22 24
M  V30 24 1 23 25
M  V30 25 2 24 26
M  V30 26 2 25 27
M  V30 27 1 14 18
M  V30 28 1 15 16
M  V30 29 1 26 27
M  V30 30 1 4 28
M  V30 31 1 5 29
M  V30 32 1 5 30
M  V30 33 1 8 31
M  V30 34 1 9 32
M  V30 35 1 10 33
M  V30 36 1 10 34
M  V30 37 1 11 35
M  V30 38 1 11 36
M  V30 39 1 12 37
M  V30 40 1 12 38
M  V30 41 1 13 39
M  V30 42 1 14 40
M  V30 43 1 15 41
M  V30 44 1 15 42
M  V30 45 1 16 43
M  V30 46 1 16 44
M  V30 47 1 18 45
M  V30 48 1 21 46
M  V30 49 1 23 47
M  V30 50 1 24 48
M  V30 51 1 25 49
M  V30 52 1 26 50
M  V30 53 1 27 51
M  V30 END BOND
M  V30 END CTAB
M  END
>  <level_0>
2407

>  <index>
2407

>  <NO.>
2408

>  <Name>
cyclarbamate

>  <SMILES>
O=C(Nc1ccccc1)OCC1(COC(=O)Nc2ccccc2)CCCC1

>  <logBB>


>  <Class>
1

>  <MW>
368.17

>  <nHBAcc>
4

>  <nHBDon>
2

>  <SLogP>
5.04

>  <TopoPSA>
76.66

>  <MMFF94 Energy>
-51.641

$$$$
O=C(O)C1=C(CSc2nnnn2CS(=O)(=O)O)CS[C@@H]2[C@H](NC(=O)C(O)c3ccccc3)C(=O)N12
Actelion Java MolfileCreator 2.0

  0  0  0  0  0  0              0 V3000
M  V30 BEGIN CTAB
M  V30 COUNTS 53 56 0 0 0
M  V30 BEGIN ATOM
M  V30 1 S -6.3559 -3.2579 1.4191 0
M  V30 2 O -5.9131 -4.2645 2.3578 0
M  V30 3 O -7.5738 -3.4152 0.6583 0
M  V30 4 O -6.5302 -1.8772 2.2394 0
M  V30 5 C -4.9959 -2.8193 0.3567 0
M  V30 6 N -5.1584 -1.5687 -0.3258 0
M  V30 7 N -5.7976 -1.5197 -1.5095 0
M  V30 8 C -4.6983 -0.3217 -0.013 0
M  V30 9 N -5.759 -0.2462 -1.8757 0
M  V30 10 S -3.7622 0.0447 1.387 0
M  V30 11 N -5.0784 0.5101 -0.9542 0
M  V30 12 C -3.3394 1.7936 1.1279 0
M  V30 13 C -1.9278 1.9286 0.5938 0
M  V30 14 C -0.842 2.0494 1.3948 0
M  V30 15 C -1.8345 1.9205 -0.9227 0
M  V30 16 N 0.4007 2.2267 0.882 0
M  V30 17 C -0.9643 1.9103 2.8677 0
M  V30 18 S -0.1985 1.3953 -1.5401 0
M  V30 19 C 1.6725 2.1906 1.3225 0
M  V30 20 C 0.6857 2.5788 -0.4907 0 CFG=2
M  V30 21 O -1.4899 2.7099 3.62 0
M  V30 22 O -0.4455 0.7442 3.2864 0
M  V30 23 O 2.1597 2.0414 2.417 0
M  V30 24 C 2.187 2.326 -0.1527 0 CFG=2
M  V30 25 N 2.8364 1.1138 -0.7194 0
M  V30 26 C 3.3534 1.1156 -1.9954 0
M  V30 27 O 3.3257 2.1209 -2.7094 0
M  V30 28 C 3.9026 -0.2288 -2.5256 0
M  V30 29 O 4.6852 -0.0258 -3.7003 0
M  V30 30 C 4.7351 -0.9803 -1.5093 0
M  V30 31 C 4.2536 -2.1668 -0.9335 0
M  V30 32 C 5.9847 -0.4889 -1.1002 0
M  V30 33 C 5.0013 -2.8384 0.0352 0
M  V30 34 C 6.7299 -1.1624 -0.1317 0
M  V30 35 C 6.2368 -2.3346 0.4374 0
M  V30 36 H -7.4848 -1.6372 2.2375 0
M  V30 37 H -4.8902 -3.6158 -0.3866 0
M  V30 38 H -4.0858 -2.7973 0.9612 0
M  V30 39 H -3.4491 2.2993 2.0919 0
M  V30 40 H -4.0516 2.3013 0.4684 0
M  V30 41 H -2.549 1.2146 -1.3515 0
M  V30 42 H -2.0732 2.9152 -1.3145 0
M  V30 43 H 0.4677 3.6303 -0.715 0
M  V30 44 H -0.4956 0.789 4.2634 0
M  V30 45 H 2.8219 3.2113 -0.2826 0
M  V30 46 H 2.934 0.2771 -0.1509 0
M  V30 47 H 3.0334 -0.828 -2.8218 0
M  V30 48 H 4.3178 0.7741 -4.1249 0
M  V30 49 H 3.2953 -2.5819 -1.2392 0
M  V30 50 H 6.3866 0.4202 -1.5447 0
M  V30 51 H 4.6237 -3.759 0.4732 0
M  V30 52 H 7.6983 -0.7746 0.174 0
M  V30 53 H 6.8205 -2.8603 1.1889 0
M  V30 END ATOM
M  V30 BEGIN BOND
M  V30 1 2 1 2
M  V30 2 2 1 3
M  V30 3 1 1 4
M  V30 4 1 1 5
M  V30 5 1 5 6
M  V30 6 1 6 7
M  V30 7 1 6 8
M  V30 8 2 7 9
M  V30 9 1 8 10
M  V30 10 2 8 11
M  V30 11 1 10 12
M  V30 12 1 12 13
M  V30 13 2 13 14
M  V30 14 1 13 15
M  V30 15 1 14 16
M  V30 16 1 14 17
M  V30 17 1 15 18
M  V30 18 1 16 19
M  V30 19 1 16 20
M  V30 20 2 17 21
M  V30 21 1 17 22
M  V30 22 2 19 23
M  V30 23 1 19 24
M  V30 24 1 24 25
M  V30 25 1 25 26
M  V30 26 2 26 27
M  V30 27 1 26 28
M  V30 28 1 28 29
M  V30 29 1 28 30
M  V30 30 2 30 31
M  V30 31 1 30 32
M  V30 32 1 31 33
M  V30 33 2 32 34
M  V30 34 2 33 35
M  V30 35 1 9 11
M  V30 36 1 18 20
M  V30 37 1 20 24
M  V30 38 1 34 35
M  V30 39 1 4 36
M  V30 40 1 5 37
M  V30 41 1 5 38
M  V30 42 1 12 39
M  V30 43 1 12 40
M  V30 44 1 15 41
M  V30 45 1 15 42
M  V30 46 1 20 43
M  V30 47 1 22 44
M  V30 48 1 24 45
M  V30 49 1 25 46
M  V30 50 1 28 47
M  V30 51 1 29 48
M  V30 52 1 31 49
M  V30 53 1 32 50
M  V30 54 1 33 51
M  V30 55 1 34 52
M  V30 56 1 35 53
M  V30 END BOND
M  V30 BEGIN COLLECTION
M  V30 MDLV30/STEABS ATOMS=(2 20 24)
M  V30 END COLLECTION
M  V30 END CTAB
M  END
>  <level_0>
2408

>  <index>
2408

>  <NO.>
2409

>  <Name>
cefonicid [inn:ban]

>  <SMILES>
O=C(O)C1=C(CSc2nnnn2CS(=O)(=O)O)CS[C@@H]2[C@H](NC(=O)C(O)c3ccccc3)C(=O)N12

>  <logBB>


>  <Class>
-1

>  <MW>
542.03

>  <nHBAcc>
11

>  <nHBDon>
4

>  <SLogP>
-0.92

>  <TopoPSA>
204.91

>  <MMFF94 Energy>
-16.26

$$$$
O=C(O)P(=O)(O)O
Actelion Java MolfileCreator 2.0

  0  0  0  0  0  0              0 V3000
M  V30 BEGIN CTAB
M  V30 COUNTS 10 9 0 0 0
M  V30 BEGIN ATOM
M  V30 1 P -0.0838 -0.4191 0.3353 0
M  V30 2 O 0.9388 -1.3207 0.9632 0
M  V30 3 O -1.2121 -1.3349 -0.3669 0
M  V30 4 O -0.981 0.2327 1.508 0
M  V30 5 C 0.5001 0.8694 -0.814 0
M  V30 6 O -0.2972 1.631 -1.3525 0
M  V30 7 O 1.8263 1.0121 -1.0966 0
M  V30 8 H -1.3541 -2.1703 0.1122 0
M  V30 9 H -1.0889 -0.3715 2.2635 0
M  V30 10 H 1.8526 1.762 -1.7268 0
M  V30 END ATOM
M  V30 BEGIN BOND
M  V30 1 2 1 2
M  V30 2 1 1 3
M  V30 3 1 1 4
M  V30 4 1 1 5
M  V30 5 2 5 6
M  V30 6 1 5 7
M  V30 7 1 3 8
M  V30 8 1 4 9
M  V30 9 1 7 10
M  V30 END BOND
M  V30 END CTAB
M  END
>  <level_0>
2415

>  <index>
2415

>  <NO.>
2416

>  <Name>
mesna

>  <SMILES>
O=C(O)P(=O)(O)O

>  <logBB>


>  <Class>
1

>  <MW>
125.97

>  <nHBAcc>
2

>  <nHBDon>
3

>  <SLogP>
-0.16

>  <TopoPSA>
94.83

>  <MMFF94 Energy>
-22.371

$$$$
O=C(c1ccc(F)cc1)C1CCN(CCCN2c3ccccc3Sc3ccc(C(F)(F)F)cc32)CC1
Actelion Java MolfileCreator 2.0

  0  0  0  0  0  0              0 V3000
M  V30 BEGIN CTAB
M  V30 COUNTS 62 66 0 0 0
M  V30 BEGIN ATOM
M  V30 1 S -3.6829 -1.0629 1.5538 0
M  V30 2 C -3.2515 -2.6291 0.8235 0
M  V30 3 C -4.0301 -0.073 0.1131 0
M  V30 4 C -2.9479 -2.7781 -0.5436 0
M  V30 5 C -3.2158 -3.735 1.6897 0
M  V30 6 C -3.6442 -0.454 -1.1877 0
M  V30 7 C -4.694 1.1464 0.3355 0
M  V30 8 N -2.9501 -1.6701 -1.4287 0
M  V30 9 C -2.6886 -4.0852 -1.0057 0
M  V30 10 C -2.9159 -5.0086 1.2119 0
M  V30 11 C -3.9959 0.4133 -2.2427 0
M  V30 12 C -5.0084 1.9914 -0.7248 0
M  V30 13 C -1.9194 -1.6505 -2.4968 0
M  V30 14 C -2.6537 -5.1986 -0.1453 0
M  V30 15 C -4.6647 1.6208 -2.0165 0
M  V30 16 C -0.763 -0.6826 -2.1943 0
M  V30 17 C -2.386 -6.5776 -0.6955 0
M  V30 18 C 0.0359 -1.0946 -0.9513 0
M  V30 19 F -3.5175 -7.1841 -1.1471 0
M  V30 20 F -1.5195 -6.5695 -1.7469 0
M  V30 21 F -1.8458 -7.4259 0.2232 0
M  V30 22 N 1.2678 -0.298 -0.7747 0
M  V30 23 C 0.9677 1.0883 -0.3859 0
M  V30 24 C 2.1337 -0.9454 0.2258 0
M  V30 25 C 2.2447 1.9129 -0.2111 0
M  V30 26 C 3.4453 -0.1838 0.4057 0
M  V30 27 C 3.1861 1.2726 0.8107 0
M  V30 28 C 4.4945 2.0556 0.9067 0
M  V30 29 O 5.5404 1.6361 0.4118 0
M  V30 30 C 4.5242 3.3777 1.6133 0
M  V30 31 C 5.6835 4.1634 1.4928 0
M  V30 32 C 3.4578 3.852 2.3909 0
M  V30 33 C 5.7723 5.4032 2.1301 0
M  V30 34 C 3.55 5.0942 3.0278 0
M  V30 35 C 4.7037 5.8574 2.8912 0
M  V30 36 F 4.785 7.0453 3.5039 0
M  V30 37 H -3.437 -3.6094 2.7484 0
M  V30 38 H -4.9779 1.4411 1.3437 0
M  V30 39 H -2.544 -4.2689 -2.0689 0
M  V30 40 H -2.9059 -5.851 1.9019 0
M  V30 41 H -3.7758 0.1564 -3.2742 0
M  V30 42 H -5.5287 2.9278 -0.542 0
M  V30 43 H -2.3751 -1.3885 -3.4585 0
M  V30 44 H -1.4744 -2.6338 -2.6783 0
M  V30 45 H -4.9207 2.264 -2.8548 0
M  V30 46 H -1.1448 0.3371 -2.0873 0
M  V30 47 H -0.0938 -0.6753 -3.0643 0
M  V30 48 H -0.5855 -1.0306 -0.0505 0
M  V30 49 H 0.3122 -2.1498 -1.0758 0
M  V30 50 H 0.3847 1.1147 0.5443 0
M  V30 51 H 0.3695 1.5829 -1.1581 0
M  V30 52 H 2.3788 -1.9638 -0.0995 0
M  V30 53 H 1.6183 -1.0275 1.192 0
M  V30 54 H 1.9725 2.9298 0.093 0
M  V30 55 H 2.7549 2.0116 -1.1789 0
M  V30 56 H 4.0567 -0.6805 1.1692 0
M  V30 57 H 4.0198 -0.2264 -0.5293 0
M  V30 58 H 2.7178 1.249 1.8017 0
M  V30 59 H 6.5258 3.8117 0.8985 0
M  V30 60 H 2.5452 3.2802 2.5253 0
M  V30 61 H 6.6666 6.0114 2.0368 0
M  V30 62 H 2.7296 5.4705 3.632 0
M  V30 END ATOM
M  V30 BEGIN BOND
M  V30 1 1 1 2
M  V30 2 1 1 3
M  V30 3 2 2 4
M  V30 4 1 2 5
M  V30 5 2 3 6
M  V30 6 1 3 7
M  V30 7 1 4 8
M  V30 8 1 4 9
M  V30 9 2 5 10
M  V30 10 1 6 11
M  V30 11 2 7 12
M  V30 12 1 8 13
M  V30 13 2 9 14
M  V30 14 2 11 15
M  V30 15 1 13 16
M  V30 16 1 14 17
M  V30 17 1 16 18
M  V30 18 1 17 19
M  V30 19 1 17 20
M  V30 20 1 17 21
M  V30 21 1 18 22
M  V30 22 1 22 23
M  V30 23 1 22 24
M  V30 24 1 23 25
M  V30 25 1 24 26
M  V30 26 1 25 27
M  V30 27 1 27 28
M  V30 28 2 28 29
M  V30 29 1 28 30
M  V30 30 2 30 31
M  V30 31 1 30 32
M  V30 32 1 31 33
M  V30 33 2 32 34
M  V30 34 2 33 35
M  V30 35 1 35 36
M  V30 36 1 6 8
M  V30 37 1 10 14
M  V30 38 1 12 15
M  V30 39 1 26 27
M  V30 40 1 34 35
M  V30 41 1 5 37
M  V30 42 1 7 38
M  V30 43 1 9 39
M  V30 44 1 10 40
M  V30 45 1 11 41
M  V30 46 1 12 42
M  V30 47 1 13 43
M  V30 48 1 13 44
M  V30 49 1 15 45
M  V30 50 1 16 46
M  V30 51 1 16 47
M  V30 52 1 18 48
M  V30 53 1 18 49
M  V30 54 1 23 50
M  V30 55 1 23 51
M  V30 56 1 24 52
M  V30 57 1 24 53
M  V30 58 1 25 54
M  V30 59 1 25 55
M  V30 60 1 26 56
M  V30 61 1 26 57
M  V30 62 1 27 58
M  V30 63 1 31 59
M  V30 64 1 32 60
M  V30 65 1 33 61
M  V30 66 1 34 62
M  V30 END BOND
M  V30 END CTAB
M  END
>  <level_0>
2425

>  <index>
2425

>  <NO.>
2426

>  <Name>
duoperone

>  <SMILES>
O=C(c1ccc(F)cc1)C1CCN(CCCN2c3ccccc3Sc3ccc(C(F)(F)F)cc32)CC1

>  <logBB>


>  <Class>
1

>  <MW>
514.17

>  <nHBAcc>
4

>  <nHBDon>
0

>  <SLogP>
7.43

>  <TopoPSA>
23.55

>  <MMFF94 Energy>
121.35

$$$$
O=C1CCC(N2C(=O)C3C4CCC(C4)C3C2=O)C(=O)N1
Actelion Java MolfileCreator 2.0

  0  0  0  0  0  0              0 V3000
M  V30 BEGIN CTAB
M  V30 COUNTS 36 39 0 0 0
M  V30 BEGIN ATOM
M  V30 1 O 3.3338 0.4873 -0.0812 0
M  V30 2 C 2.9917 -0.6265 0.3128 0
M  V30 3 N 3.8894 -1.67 0.3238 0
M  V30 4 C 1.6104 -0.9269 0.9019 0
M  V30 5 C 3.6923 -2.9505 0.7779 0
M  V30 6 N 0.6413 4.0E-4 0.3344 0
M  V30 7 C 1.2498 -2.3997 0.7231 0
M  V30 8 O 4.6032 -3.7729 0.7674 0
M  V30 9 C 2.331 -3.2623 1.3561 0
M  V30 10 C 0.219 -0.025 -0.9654 0
M  V30 11 C 0.1322 1.0552 1.0399 0
M  V30 12 O 0.5272 -0.8474 -1.8144 0
M  V30 13 C -0.7139 1.1317 -1.2039 0
M  V30 14 O 0.3323 1.3029 2.2197 0
M  V30 15 C -0.7688 1.8606 0.1427 0
M  V30 16 C -2.1776 0.71 -1.4339 0
M  V30 17 C -2.259 1.7735 0.5254 0
M  V30 18 C -2.6744 0.4036 -0.0183 0
M  V30 19 C -2.9914 1.9765 -1.762 0
M  V30 20 C -3.0466 2.7113 -0.4094 0
M  V30 21 H 4.8082 -1.468 -0.0467 0
M  V30 22 H 1.6967 -0.7193 1.9768 0
M  V30 23 H 0.2793 -2.6121 1.1862 0
M  V30 24 H 1.1667 -2.6665 -0.3359 0
M  V30 25 H 2.3753 -3.1001 2.4388 0
M  V30 26 H 2.1103 -4.32 1.177 0
M  V30 27 H -0.3152 1.7612 -2.006 0
M  V30 28 H -0.3981 2.8888 0.0811 0
M  V30 29 H -2.3075 -0.1015 -2.1529 0
M  V30 30 H -2.4638 1.9284 1.5869 0
M  V30 31 H -2.1615 -0.4364 0.4587 0
M  V30 32 H -3.7556 0.2321 0.0299 0
M  V30 33 H -2.526 2.5864 -2.5427 0
M  V30 34 H -4.0041 1.7158 -2.0897 0
M  V30 35 H -2.6096 3.7133 -0.4673 0
M  V30 36 H -4.0864 2.8103 -0.0776 0
M  V30 END ATOM
M  V30 BEGIN BOND
M  V30 1 2 1 2
M  V30 2 1 2 3
M  V30 3 1 2 4
M  V30 4 1 3 5
M  V30 5 1 4 6
M  V30 6 1 4 7
M  V30 7 2 5 8
M  V30 8 1 5 9
M  V30 9 1 6 10
M  V30 10 1 6 11
M  V30 11 2 10 12
M  V30 12 1 10 13
M  V30 13 2 11 14
M  V30 14 1 11 15
M  V30 15 1 13 16
M  V30 16 1 15 17
M  V30 17 1 16 18
M  V30 18 1 16 19
M  V30 19 1 17 20
M  V30 20 1 7 9
M  V30 21 1 13 15
M  V30 22 1 17 18
M  V30 23 1 19 20
M  V30 24 1 3 21
M  V30 25 1 4 22
M  V30 26 1 7 23
M  V30 27 1 7 24
M  V30 28 1 9 25
M  V30 29 1 9 26
M  V30 30 1 13 27
M  V30 31 1 15 28
M  V30 32 1 16 29
M  V30 33 1 17 30
M  V30 34 1 18 31
M  V30 35 1 18 32
M  V30 36 1 19 33
M  V30 37 1 19 34
M  V30 38 1 20 35
M  V30 39 1 20 36
M  V30 END BOND
M  V30 END CTAB
M  END
>  <level_0>
2438

>  <index>
2438

>  <NO.>
2439

>  <Name>
taglutimide(biglumide)

>  <SMILES>
O=C1CCC(N2C(=O)C3C4CCC(C4)C3C2=O)C(=O)N1

>  <logBB>


>  <Class>
1

>  <MW>
276.11

>  <nHBAcc>
4

>  <nHBDon>
1

>  <SLogP>
-0.18

>  <TopoPSA>
83.55

>  <MMFF94 Energy>
-57.473

$$$$
O=C1CN2C(=O)CCC2N1
Actelion Java MolfileCreator 2.0

  0  0  0  0  0  0              0 V3000
M  V30 BEGIN CTAB
M  V30 COUNTS 18 19 0 0 0
M  V30 BEGIN ATOM
M  V30 1 O 2.313 0.239 1.4352 0
M  V30 2 C 1.4015 -0.219 0.7713 0
M  V30 3 N 0.6412 0.445 -0.1615 0
M  V30 4 C 0.8744 -1.6345 0.8333 0
M  V30 5 C -0.4085 -0.3469 -0.6954 0 CFG=1
M  V30 6 C 0.4363 1.8714 -0.2689 0
M  V30 7 C -0.5583 -1.4627 0.3172 0
M  V30 8 N -1.4773 0.5691 -0.8128 0
M  V30 9 C -1.0456 1.8739 -0.6314 0
M  V30 10 O -1.7559 2.8551 -0.7802 0
M  V30 11 H 1.4723 -2.2702 0.1734 0
M  V30 12 H 0.8937 -2.0195 1.8553 0
M  V30 13 H -0.1199 -0.7092 -1.688 0
M  V30 14 H 0.6291 2.3737 0.6802 0
M  V30 15 H 1.0348 2.2677 -1.0911 0
M  V30 16 H -1.2167 -1.1626 1.1429 0
M  V30 17 H -0.9651 -2.38 -0.1178 0
M  V30 18 H -2.4205 0.3629 -1.1118 0
M  V30 END ATOM
M  V30 BEGIN BOND
M  V30 1 2 1 2
M  V30 2 1 2 3
M  V30 3 1 2 4
M  V30 4 1 3 5
M  V30 5 1 3 6
M  V30 6 1 4 7
M  V30 7 1 5 8
M  V30 8 1 6 9
M  V30 9 2 9 10
M  V30 10 1 5 7
M  V30 11 1 8 9
M  V30 12 1 4 11
M  V30 13 1 4 12
M  V30 14 1 5 13
M  V30 15 1 6 14
M  V30 16 1 6 15
M  V30 17 1 7 16
M  V30 18 1 7 17
M  V30 19 1 8 18
M  V30 END BOND
M  V30 BEGIN COLLECTION
M  V30 MDLV30/STERAC1 ATOMS=(1 5)
M  V30 END COLLECTION
M  V30 END CTAB
M  END
>  <level_0>
2450

>  <index>
2450

>  <NO.>
2451

>  <Name>
dimiracetam

>  <SMILES>
O=C1CN2C(=O)CCC2N1

>  <logBB>


>  <Class>
1

>  <MW>
140.06

>  <nHBAcc>
2

>  <nHBDon>
1

>  <SLogP>
-0.94

>  <TopoPSA>
49.41

>  <MMFF94 Energy>
-43.56

$$$$
O=C1C[C@H]2SC(C3(O)CN4C(=O)C[C@H]4S3)CN12
Actelion Java MolfileCreator 2.0

  0  0  0  0  0  0              0 V3000
M  V30 BEGIN CTAB
M  V30 COUNTS 29 32 0 0 0
M  V30 BEGIN ATOM
M  V30 1 S -0.6807 -1.8727 0.5956 0
M  V30 2 C -0.2288 -0.0791 0.8363 0
M  V30 3 C 0.5798 -2.4984 1.7694 0 CFG=1
M  V30 4 O -1.2717 0.527 1.6106 0
M  V30 5 C -0.1028 0.7214 -0.479 0
M  V30 6 C 1.0831 -0.0646 1.6561 0
M  V30 7 N 1.0993 -1.2968 2.4066 0
M  V30 8 C 0.0436 -2.9187 3.1497 0
M  V30 9 S 1.1194 0.0682 -1.7322 0
M  V30 10 C -1.4309 0.8875 -1.2309 0
M  V30 11 C 0.4684 -1.5074 3.5917 0
M  V30 12 C 0.0894 0.5497 -3.1736 0 CFG=1
M  V30 13 N -1.0701 1.209 -2.5885 0
M  V30 14 O 0.2236 -0.7577 4.505 0
M  V30 15 C 0.4474 1.8932 -3.8294 0
M  V30 16 C -0.7404 2.4531 -3.0283 0
M  V30 17 O -1.1691 3.5444 -2.7411 0
M  V30 18 H 1.3559 -3.1369 1.3399 0
M  V30 19 H -1.3109 0.0594 2.4646 0
M  V30 20 H 0.2557 1.7303 -0.2324 0
M  V30 21 H 1.981 -0.0682 1.0327 0
M  V30 22 H 1.1188 0.7846 2.3466 0
M  V30 23 H 0.6043 -3.7165 3.6452 0
M  V30 24 H -1.0288 -3.1123 3.2288 0
M  V30 25 H -2.0256 -0.0297 -1.2613 0
M  V30 26 H -2.0335 1.694 -0.8002 0
M  V30 27 H -0.1716 -0.2616 -3.8582 0
M  V30 28 H 1.4119 2.3348 -3.5666 0
M  V30 29 H 0.3007 1.936 -4.9122 0
M  V30 END ATOM
M  V30 BEGIN BOND
M  V30 1 1 1 2
M  V30 2 1 1 3
M  V30 3 1 2 4
M  V30 4 1 2 5
M  V30 5 1 2 6
M  V30 6 1 3 7
M  V30 7 1 3 8
M  V30 8 1 5 9
M  V30 9 1 5 10
M  V30 10 1 7 11
M  V30 11 1 9 12
M  V30 12 1 10 13
M  V30 13 2 11 14
M  V30 14 1 12 15
M  V30 15 1 13 16
M  V30 16 2 16 17
M  V30 17 1 6 7
M  V30 18 1 8 11
M  V30 19 1 12 13
M  V30 20 1 15 16
M  V30 21 1 3 18
M  V30 22 1 4 19
M  V30 23 1 5 20
M  V30 24 1 6 21
M  V30 25 1 6 22
M  V30 26 1 8 23
M  V30 27 1 8 24
M  V30 28 1 10 25
M  V30 29 1 10 26
M  V30 30 1 12 27
M  V30 31 1 15 28
M  V30 32 1 15 29
M  V30 END BOND
M  V30 BEGIN COLLECTION
M  V30 MDLV30/STEABS ATOMS=(2 3 12)
M  V30 END COLLECTION
M  V30 END CTAB
M  END
>  <level_0>
2466

>  <index>
2466

>  <NO.>
2467

>  <Name>
schembl499258

>  <SMILES>
O=C1C[C@H]2SC(C3(O)CN4C(=O)C[C@H]4S3)CN12

>  <logBB>


>  <Class>
1

>  <MW>
272.03

>  <nHBAcc>
5

>  <nHBDon>
1

>  <SLogP>
-0.35

>  <TopoPSA>
60.85

>  <MMFF94 Energy>
-8.7662

$$$$
O=C1NCN(c2ccccc2)C12CCN(CCCC(c1ccc(F)cc1)c1ccc(F)cc1)CC2
Actelion Java MolfileCreator 2.0

  0  0  0  0  0  0              0 V3000
M  V30 BEGIN CTAB
M  V30 COUNTS 66 70 0 0 0
M  V30 BEGIN ATOM
M  V30 1 F -1.442 6.5018 -2.9659 0
M  V30 2 C -0.8918 5.7087 -2.0372 0
M  V30 3 C -0.0441 4.6812 -2.4297 0
M  V30 4 C -1.1775 5.9258 -0.6956 0
M  V30 5 C 0.5315 3.8553 -1.4628 0
M  V30 6 C -0.6052 5.1001 0.2734 0
M  V30 7 C 0.259 4.0548 -0.0975 0
M  V30 8 C 0.8907 3.1368 0.9461 0
M  V30 9 C 1.7687 3.9212 1.9284 0
M  V30 10 C -0.1664 2.2266 1.6234 0
M  V30 11 C 1.358 4.247 3.2326 0
M  V30 12 C 3.0369 4.3603 1.4979 0
M  V30 13 C -0.8881 1.2405 0.6874 0
M  V30 14 C 2.1949 4.9752 4.0825 0
M  V30 15 C 3.871 5.0881 2.3482 0
M  V30 16 C 0.0329 0.1434 0.1328 0
M  V30 17 C 3.4424 5.3871 3.6336 0
M  V30 18 N -0.6532 -0.7613 -0.8099 0
M  V30 19 F 4.2411 6.0855 4.4513 0
M  V30 20 C -1.602 -1.6501 -0.1226 0
M  V30 21 C 0.3434 -1.5748 -1.5254 0
M  V30 22 C -2.3804 -2.5015 -1.1217 0
M  V30 23 C -0.298 -2.4465 -2.6007 0
M  V30 24 C -1.4808 -3.2716 -2.0928 0
M  V30 25 N -1.0928 -4.6142 -1.5892 0
M  V30 26 C -2.348 -3.6635 -3.3068 0
M  V30 27 C -0.4121 -4.8826 -0.4297 0
M  V30 28 C -1.8363 -5.6802 -2.2244 0
M  V30 29 O -2.8551 -2.9314 -4.1419 0
M  V30 30 N -2.4925 -5.0317 -3.3032 0
M  V30 31 C -1.0814 -5.2164 0.7545 0
M  V30 32 C 0.9862 -4.8728 -0.4086 0
M  V30 33 C -0.3786 -5.5047 1.9278 0
M  V30 34 C 1.6968 -5.161 0.7598 0
M  V30 35 C 1.0125 -5.4743 1.9304 0
M  V30 36 H 0.1604 4.5271 -3.4842 0
M  V30 37 H -1.8423 6.7352 -0.4121 0
M  V30 38 H 1.1879 3.0495 -1.7841 0
M  V30 39 H -0.835 5.282 1.3206 0
M  V30 40 H 1.5918 2.4661 0.4324 0
M  V30 41 H -0.9374 2.8421 2.105 0
M  V30 42 H 0.3107 1.6477 2.4255 0
M  V30 43 H 0.3829 3.9479 3.6075 0
M  V30 44 H 3.3784 4.1408 0.4879 0
M  V30 45 H -1.6956 0.7852 1.2717 0
M  V30 46 H -1.3689 1.7806 -0.1361 0
M  V30 47 H 1.8785 5.2261 5.09 0
M  V30 48 H 4.8464 5.4257 2.0136 0
M  V30 49 H 0.8519 0.6337 -0.4041 0
M  V30 50 H 0.4866 -0.4213 0.9575 0
M  V30 51 H -2.3426 -1.0662 0.4337 0
M  V30 52 H -1.087 -2.2805 0.6108 0
M  V30 53 H 0.922 -2.1824 -0.8224 0
M  V30 54 H 1.0628 -0.9162 -2.029 0
M  V30 55 H -3.0493 -3.1821 -0.5798 0
M  V30 56 H -3.0407 -1.8283 -1.6869 0
M  V30 57 H 0.4648 -3.0929 -3.0524 0
M  V30 58 H -0.6331 -1.7778 -3.406 0
M  V30 59 H -2.5994 -6.1184 -1.5733 0
M  V30 60 H -1.1822 -6.4617 -2.6225 0
M  V30 61 H -3.0359 -5.4983 -4.0134 0
M  V30 62 H -2.168 -5.2405 0.7761 0
M  V30 63 H 1.5368 -4.6472 -1.3185 0
M  V30 64 H -0.9196 -5.7522 2.8373 0
M  V30 65 H 2.7833 -5.1447 0.7508 0
M  V30 66 H 1.5622 -5.6992 2.8405 0
M  V30 END ATOM
M  V30 BEGIN BOND
M  V30 1 1 1 2
M  V30 2 2 2 3
M  V30 3 1 2 4
M  V30 4 1 3 5
M  V30 5 2 4 6
M  V30 6 2 5 7
M  V30 7 1 7 8
M  V30 8 1 8 9
M  V30 9 1 8 10
M  V30 10 2 9 11
M  V30 11 1 9 12
M  V30 12 1 10 13
M  V30 13 1 11 14
M  V30 14 2 12 15
M  V30 15 1 13 16
M  V30 16 2 14 17
M  V30 17 1 16 18
M  V30 18 1 17 19
M  V30 19 1 18 20
M  V30 20 1 18 21
M  V30 21 1 20 22
M  V30 22 1 21 23
M  V30 23 1 22 24
M  V30 24 1 24 25
M  V30 25 1 24 26
M  V30 26 1 25 27
M  V30 27 1 25 28
M  V30 28 2 26 29
M  V30 29 1 26 30
M  V30 30 2 27 31
M  V30 31 1 27 32
M  V30 32 1 31 33
M  V30 33 2 32 34
M  V30 34 2 33 35
M  V30 35 1 6 7
M  V30 36 1 15 17
M  V30 37 1 23 24
M  V30 38 1 28 30
M  V30 39 1 34 35
M  V30 40 1 3 36
M  V30 41 1 4 37
M  V30 42 1 5 38
M  V30 43 1 6 39
M  V30 44 1 8 40
M  V30 45 1 10 41
M  V30 46 1 10 42
M  V30 47 1 11 43
M  V30 48 1 12 44
M  V30 49 1 13 45
M  V30 50 1 13 46
M  V30 51 1 14 47
M  V30 52 1 15 48
M  V30 53 1 16 49
M  V30 54 1 16 50
M  V30 55 1 20 51
M  V30 56 1 20 52
M  V30 57 1 21 53
M  V30 58 1 21 54
M  V30 59 1 22 55
M  V30 60 1 22 56
M  V30 61 1 23 57
M  V30 62 1 23 58
M  V30 63 1 28 59
M  V30 64 1 28 60
M  V30 65 1 30 61
M  V30 66 1 31 62
M  V30 67 1 32 63
M  V30 68 1 33 64
M  V30 69 1 34 65
M  V30 70 1 35 66
M  V30 END BOND
M  V30 END CTAB
M  END
>  <level_0>
2483

>  <index>
2483

>  <NO.>
2484

>  <Name>
fluspirilene

>  <SMILES>
O=C1NCN(c2ccccc2)C12CCN(CCCC(c1ccc(F)cc1)c1ccc(F)cc1)CC2

>  <logBB>


>  <Class>
1

>  <MW>
475.24

>  <nHBAcc>
3

>  <nHBDon>
1

>  <SLogP>
5.31

>  <TopoPSA>
35.58

>  <MMFF94 Energy>
52.155

$$$$
O=c1[nH]c(=O)n([C@H]2C[C@H](O)[C@@H](CO)O2)cc1F
Actelion Java MolfileCreator 2.0

  0  0  0  0  0  0              0 V3000
M  V30 BEGIN CTAB
M  V30 COUNTS 28 29 0 0 0
M  V30 BEGIN ATOM
M  V30 1 F -2.5627 2.3222 -2.5627 0
M  V30 2 C -1.4023 2.3571 -1.8827 0
M  V30 3 C -0.7535 3.6679 -1.6994 0
M  V30 4 C -0.8378 1.262 -1.3763 0
M  V30 5 O -1.2268 4.71 -2.1369 0
M  V30 6 N 0.4195 3.6338 -0.9922 0
M  V30 7 N 0.3565 1.3134 -0.6784 0
M  V30 8 C 1.0148 2.5196 -0.4529 0
M  V30 9 C 0.96 0.1113 -0.111 0 CFG=2
M  V30 10 O 2.0548 2.6294 0.1905 0
M  V30 11 O 0.5011 -1.0672 -0.8008 0
M  V30 12 C 0.6088 -0.087 1.3571 0
M  V30 13 C 0.3528 -2.1259 0.1708 0 CFG=1
M  V30 14 C 0.8217 -1.5716 1.5188 0 CFG=1
M  V30 15 C -1.1134 -2.5621 0.1859 0
M  V30 16 O 2.2221 -1.7974 1.6984 0
M  V30 17 O -1.3094 -3.6229 1.1107 0
M  V30 18 H -1.3096 0.2952 -1.5106 0
M  V30 19 H 0.8896 4.5131 -0.8419 0
M  V30 20 H 2.0485 0.1607 -0.2424 0
M  V30 21 H 1.2337 0.5275 2.0123 0
M  V30 22 H -0.4425 0.1635 1.5422 0
M  V30 23 H 0.9828 -2.9661 -0.1424 0
M  V30 24 H 0.303 -1.9852 2.388 0
M  V30 25 H -1.7722 -1.7291 0.4546 0
M  V30 26 H -1.4113 -2.902 -0.812 0
M  V30 27 H 2.346 -2.7549 1.8288 0
M  V30 28 H -2.2321 -3.9199 1.0142 0
M  V30 END ATOM
M  V30 BEGIN BOND
M  V30 1 1 1 2
M  V30 2 1 2 3
M  V30 3 2 2 4
M  V30 4 2 3 5
M  V30 5 1 3 6
M  V30 6 1 4 7
M  V30 7 1 6 8
M  V30 8 1 7 9
M  V30 9 2 8 10
M  V30 10 1 9 11
M  V30 11 1 9 12
M  V30 12 1 11 13
M  V30 13 1 12 14
M  V30 14 1 13 15
M  V30 15 1 14 16
M  V30 16 1 15 17
M  V30 17 1 7 8
M  V30 18 1 13 14
M  V30 19 1 4 18
M  V30 20 1 6 19
M  V30 21 1 9 20
M  V30 22 1 12 21
M  V30 23 1 12 22
M  V30 24 1 13 23
M  V30 25 1 14 24
M  V30 26 1 15 25
M  V30 27 1 15 26
M  V30 28 1 16 27
M  V30 29 1 17 28
M  V30 END BOND
M  V30 BEGIN COLLECTION
M  V30 MDLV30/STEABS ATOMS=(3 9 13 14)
M  V30 END COLLECTION
M  V30 END CTAB
M  END
>  <level_0>
2496

>  <index>
2496

>  <NO.>
2497

>  <Name>
floxuridine

>  <SMILES>
O=c1[nH]c(=O)n([C@H]2C[C@H](O)[C@@H](CO)O2)cc1F

>  <logBB>


>  <Class>
-1

>  <MW>
246.07

>  <nHBAcc>
5

>  <nHBDon>
3

>  <SLogP>
-1.68

>  <TopoPSA>
104.55

>  <MMFF94 Energy>
-34.602

$$$$
O=c1[nH]c2cc(Cl)ccc2n1C1CCN(CCCC(c2ccc(F)cc2)c2ccc(F)cc2)CC1
Actelion Java MolfileCreator 2.0

  0  0  0  0  0  0              0 V3000
M  V30 BEGIN CTAB
M  V30 COUNTS 63 67 0 0 0
M  V30 BEGIN ATOM
M  V30 1 Cl 6.4729 0.1614 3.5562 0
M  V30 2 C 5.6508 -0.5938 2.2449 0
M  V30 3 C 6.1793 -1.756 1.6836 0
M  V30 4 C 4.4563 -0.0227 1.761 0
M  V30 5 C 5.4725 -2.3076 0.6392 0
M  V30 6 C 3.7591 -0.6081 0.6954 0
M  V30 7 N 5.7657 -3.4481 -0.0956 0
M  V30 8 C 4.2863 -1.7571 0.145 0
M  V30 9 C 4.7716 -3.6375 -1.0649 0
M  V30 10 N 3.8473 -2.5769 -0.9101 0
M  V30 11 O 4.7387 -4.5507 -1.872 0
M  V30 12 C 2.6637 -2.4182 -1.7346 0
M  V30 13 C 1.3574 -2.5415 -0.9425 0
M  V30 14 C 2.6969 -1.1508 -2.5952 0
M  V30 15 C 0.1522 -2.3598 -1.8655 0
M  V30 16 C 1.4232 -1.0347 -3.4343 0
M  V30 17 N 0.1828 -1.1142 -2.6456 0
M  V30 18 C -0.0468 0.1085 -1.8616 0
M  V30 19 C -1.4584 0.1816 -1.2623 0
M  V30 20 C -1.7101 1.5496 -0.6082 0
M  V30 21 C -3.1381 1.6783 -0.02 0
M  V30 22 C -3.3567 0.728 1.1556 0
M  V30 23 C -3.5441 3.1112 0.3343 0
M  V30 24 C -4.285 -0.3223 1.0423 0
M  V30 25 C -2.645 0.8741 2.3595 0
M  V30 26 C -2.614 4.1011 0.6963 0
M  V30 27 C -4.9119 3.4488 0.3276 0
M  V30 28 C -4.4918 -1.2047 2.1039 0
M  V30 29 C -2.8549 -0.009 3.4199 0
M  V30 30 C -3.0383 5.391 1.0257 0
M  V30 31 C -5.3337 4.7379 0.6576 0
M  V30 32 C -3.7751 -1.0399 3.2819 0
M  V30 33 C -4.3923 5.6975 1.002 0
M  V30 34 F -3.9741 -1.8875 4.2997 0
M  V30 35 F -4.7949 6.9348 1.3196 0
M  V30 36 H 7.0962 -2.1997 2.0505 0
M  V30 37 H 4.0673 0.8846 2.2185 0
M  V30 38 H 2.8435 -0.1578 0.3351 0
M  V30 39 H 6.5528 -4.0658 0.0175 0
M  V30 40 H 2.6711 -3.2621 -2.4391 0
M  V30 41 H 1.3106 -1.8125 -0.1278 0
M  V30 42 H 1.3068 -3.5295 -0.4681 0
M  V30 43 H 3.5693 -1.1788 -3.2599 0
M  V30 44 H 2.8148 -0.2534 -1.9797 0
M  V30 45 H -0.7738 -2.446 -1.2882 0
M  V30 46 H 0.1173 -3.2023 -2.5695 0
M  V30 47 H 1.4117 -1.8399 -4.1806 0
M  V30 48 H 1.4461 -0.1046 -4.0157 0
M  V30 49 H 0.0705 0.9744 -2.5261 0
M  V30 50 H 0.6946 0.2253 -1.0632 0
M  V30 51 H -1.5854 -0.6044 -0.5117 0
M  V30 52 H -2.2036 0.0119 -2.0492 0
M  V30 53 H -0.9495 1.7199 0.1639 0
M  V30 54 H -1.5652 2.3265 -1.3707 0
M  V30 55 H -3.8165 1.3783 -0.833 0
M  V30 56 H -4.8513 -0.4626 0.1239 0
M  V30 57 H -1.9278 1.6819 2.4835 0
M  V30 58 H -1.5497 3.8858 0.7335 0
M  V30 59 H -5.6596 2.7015 0.0686 0
M  V30 60 H -5.2063 -2.0171 2.0194 0
M  V30 61 H -2.3105 0.1032 4.3518 0
M  V30 62 H -2.3212 6.1567 1.3037 0
M  V30 63 H -6.3877 4.9958 0.6516 0
M  V30 END ATOM
M  V30 BEGIN BOND
M  V30 1 1 1 2
M  V30 2 2 2 3
M  V30 3 1 2 4
M  V30 4 1 3 5
M  V30 5 2 4 6
M  V30 6 1 5 7
M  V30 7 2 5 8
M  V30 8 1 7 9
M  V30 9 1 8 10
M  V30 10 2 9 11
M  V30 11 1 10 12
M  V30 12 1 12 13
M  V30 13 1 12 14
M  V30 14 1 13 15
M  V30 15 1 14 16
M  V30 16 1 15 17
M  V30 17 1 17 18
M  V30 18 1 18 19
M  V30 19 1 19 20
M  V30 20 1 20 21
M  V30 21 1 21 22
M  V30 22 1 21 23
M  V30 23 2 22 24
M  V30 24 1 22 25
M  V30 25 2 23 26
M  V30 26 1 23 27
M  V30 27 1 24 28
M  V30 28 2 25 29
M  V30 29 1 26 30
M  V30 30 2 27 31
M  V30 31 2 28 32
M  V30 32 2 30 33
M  V30 33 1 32 34
M  V30 34 1 33 35
M  V30 35 1 6 8
M  V30 36 1 9 10
M  V30 37 1 16 17
M  V30 38 1 29 32
M  V30 39 1 31 33
M  V30 40 1 3 36
M  V30 41 1 4 37
M  V30 42 1 6 38
M  V30 43 1 7 39
M  V30 44 1 12 40
M  V30 45 1 13 41
M  V30 46 1 13 42
M  V30 47 1 14 43
M  V30 48 1 14 44
M  V30 49 1 15 45
M  V30 50 1 15 46
M  V30 51 1 16 47
M  V30 52 1 16 48
M  V30 53 1 18 49
M  V30 54 1 18 50
M  V30 55 1 19 51
M  V30 56 1 19 52
M  V30 57 1 20 53
M  V30 58 1 20 54
M  V30 59 1 21 55
M  V30 60 1 24 56
M  V30 61 1 25 57
M  V30 62 1 26 58
M  V30 63 1 27 59
M  V30 64 1 28 60
M  V30 65 1 29 61
M  V30 66 1 30 62
M  V30 67 1 31 63
M  V30 END BOND
M  V30 END CTAB
M  END
>  <level_0>
2499

>  <index>
2499

>  <NO.>
2500

>  <Name>
clopimozide

>  <SMILES>
O=c1[nH]c2cc(Cl)ccc2n1C1CCN(CCCC(c2ccc(F)cc2)c2ccc(F)cc2)CC1

>  <logBB>


>  <Class>
1

>  <MW>
495.19

>  <nHBAcc>
2

>  <nHBDon>
1

>  <SLogP>
6.51

>  <TopoPSA>
41.03

>  <MMFF94 Energy>
25.51

$$$$
O=c1[nH]c2ccccc2n1C1CCN(CCCC(c2ccc(F)cc2)c2ccc(F)cc2)CC1
Actelion Java MolfileCreator 2.0

  0  0  0  0  0  0              0 V3000
M  V30 BEGIN CTAB
M  V30 COUNTS 63 67 0 0 0
M  V30 BEGIN ATOM
M  V30 1 F 2.8877 5.6208 0.7213 0
M  V30 2 C 3.1044 4.2992 0.7049 0
M  V30 3 C 3.8227 3.7369 -0.342 0
M  V30 4 C 2.608 3.5111 1.7348 0
M  V30 5 C 4.0487 2.3597 -0.361 0
M  V30 6 C 2.8325 2.1336 1.7183 0
M  V30 7 C 3.5537 1.5389 0.6681 0
M  V30 8 C 3.8087 0.0339 0.6272 0
M  V30 9 C 4.7502 -0.4027 1.7522 0
M  V30 10 C 2.4956 -0.7851 0.552 0
M  V30 11 C 4.2877 -0.9401 2.9659 0
M  V30 12 C 6.1378 -0.2307 1.582 0
M  V30 13 C 1.7212 -0.5486 -0.7541 0
M  V30 14 C 5.1861 -1.3093 3.97 0
M  V30 15 C 7.0338 -0.5997 2.5866 0
M  V30 16 C 0.4558 -1.4165 -0.8048 0
M  V30 17 C 6.5493 -1.1373 3.7707 0
M  V30 18 N -0.2559 -1.3209 -2.092 0
M  V30 19 F 7.4078 -1.4914 4.7359 0
M  V30 20 C -0.8546 -0.0021 -2.3468 0
M  V30 21 C -1.2764 -2.3745 -2.2175 0
M  V30 22 C -2.0536 0.3203 -1.4552 0
M  V30 23 C -2.497 -2.1657 -1.3205 0
M  V30 24 C -3.1149 -0.7818 -1.5524 0
M  V30 25 N -4.2339 -0.5329 -0.659 0
M  V30 26 C -4.1694 -0.4725 0.7526 0
M  V30 27 C -5.5642 -0.3022 -1.0516 0
M  V30 28 O -3.1948 -0.6174 1.4714 0
M  V30 29 N -5.471 -0.2063 1.2019 0
M  V30 30 C -6.3171 -0.1026 0.1066 0
M  V30 31 C -6.1516 -0.2535 -2.298 0
M  V30 32 C -7.6697 0.1509 0.083 0
M  V30 33 C -7.5278 0.0029 -2.3508 0
M  V30 34 C -8.2785 0.2029 -1.1734 0
M  V30 35 H 4.2017 4.3727 -1.1353 0
M  V30 36 H 2.0518 3.972 2.5446 0
M  V30 37 H 4.6115 1.9305 -1.187 0
M  V30 38 H 2.4431 1.5292 2.5342 0
M  V30 39 H 4.3431 -0.1945 -0.3071 0
M  V30 40 H 2.7371 -1.8541 0.6222 0
M  V30 41 H 1.8374 -0.556 1.3992 0
M  V30 42 H 3.2253 -1.0743 3.1518 0
M  V30 43 H 6.5278 0.1992 0.6616 0
M  V30 44 H 1.4539 0.51 -0.8249 0
M  V30 45 H 2.3655 -0.785 -1.6096 0
M  V30 46 H 4.8295 -1.7257 4.9066 0
M  V30 47 H 8.1023 -0.4669 2.4536 0
M  V30 48 H 0.7721 -2.4577 -0.6588 0
M  V30 49 H -0.1937 -1.1675 0.042 0
M  V30 50 H -0.1091 0.7954 -2.268 0
M  V30 51 H -1.179 0.0267 -3.3959 0
M  V30 52 H -1.6052 -2.4144 -3.2644 0
M  V30 53 H -0.8342 -3.3583 -2.018 0
M  V30 54 H -1.7216 0.4597 -0.4204 0
M  V30 55 H -2.4902 1.2782 -1.7644 0
M  V30 56 H -3.2426 -2.9419 -1.5328 0
M  V30 57 H -2.212 -2.2989 -0.2708 0
M  V30 58 H -3.4941 -0.7707 -2.5812 0
M  V30 59 H -5.7152 -0.1099 2.1733 0
M  V30 60 H -5.5905 -0.4043 -3.2112 0
M  V30 61 H -8.2404 0.304 0.9906 0
M  V30 62 H -8.0284 0.0494 -3.3161 0
M  V30 63 H -9.346 0.4005 -1.2473 0
M  V30 END ATOM
M  V30 BEGIN BOND
M  V30 1 1 1 2
M  V30 2 2 2 3
M  V30 3 1 2 4
M  V30 4 1 3 5
M  V30 5 2 4 6
M  V30 6 2 5 7
M  V30 7 1 7 8
M  V30 8 1 8 9
M  V30 9 1 8 10
M  V30 10 2 9 11
M  V30 11 1 9 12
M  V30 12 1 10 13
M  V30 13 1 11 14
M  V30 14 2 12 15
M  V30 15 1 13 16
M  V30 16 2 14 17
M  V30 17 1 16 18
M  V30 18 1 17 19
M  V30 19 1 18 20
M  V30 20 1 18 21
M  V30 21 1 20 22
M  V30 22 1 21 23
M  V30 23 1 22 24
M  V30 24 1 24 25
M  V30 25 1 25 26
M  V30 26 1 25 27
M  V30 27 2 26 28
M  V30 28 1 26 29
M  V30 29 2 27 30
M  V30 30 1 27 31
M  V30 31 1 30 32
M  V30 32 2 31 33
M  V30 33 2 32 34
M  V30 34 1 6 7
M  V30 35 1 15 17
M  V30 36 1 23 24
M  V30 37 1 29 30
M  V30 38 1 33 34
M  V30 39 1 3 35
M  V30 40 1 4 36
M  V30 41 1 5 37
M  V30 42 1 6 38
M  V30 43 1 8 39
M  V30 44 1 10 40
M  V30 45 1 10 41
M  V30 46 1 11 42
M  V30 47 1 12 43
M  V30 48 1 13 44
M  V30 49 1 13 45
M  V30 50 1 14 46
M  V30 51 1 15 47
M  V30 52 1 16 48
M  V30 53 1 16 49
M  V30 54 1 20 50
M  V30 55 1 20 51
M  V30 56 1 21 52
M  V30 57 1 21 53
M  V30 58 1 22 54
M  V30 59 1 22 55
M  V30 60 1 23 56
M  V30 61 1 23 57
M  V30 62 1 24 58
M  V30 63 1 29 59
M  V30 64 1 31 60
M  V30 65 1 32 61
M  V30 66 1 33 62
M  V30 67 1 34 63
M  V30 END BOND
M  V30 END CTAB
M  END
>  <level_0>
2503

>  <index>
2503

>  <NO.>
2504

>  <Name>
maprotiline

>  <SMILES>
O=c1[nH]c2ccccc2n1C1CCN(CCCC(c2ccc(F)cc2)c2ccc(F)cc2)CC1

>  <logBB>


>  <Class>
1

>  <MW>
461.23

>  <nHBAcc>
2

>  <nHBDon>
1

>  <SLogP>
5.86

>  <TopoPSA>
41.03

>  <MMFF94 Energy>
30.166

$$$$
O=c1[nH]cc(F)c(=O)[nH]1
Actelion Java MolfileCreator 2.0

  0  0  0  0  0  0              0 V3000
M  V30 BEGIN CTAB
M  V30 COUNTS 12 12 0 0 0
M  V30 BEGIN ATOM
M  V30 1 F -1.9016 -1.9016 0.2375 0
M  V30 2 C -0.9871 -0.9215 0.1259 0
M  V30 3 C 0.4305 -1.267 0.3774 0
M  V30 4 C -1.312 0.3302 -0.1985 0
M  V30 5 O 0.7918 -2.3987 0.6791 0
M  V30 6 N 1.315 -0.2241 0.2479 0
M  V30 7 N -0.3475 1.2976 -0.3011 0
M  V30 8 C 0.9866 1.0627 -0.0849 0
M  V30 9 O 1.8255 1.9505 -0.1848 0
M  V30 10 H -2.3369 0.6264 -0.3908 0
M  V30 11 H 2.2898 -0.4221 0.4118 0
M  V30 12 H -0.5941 2.2503 -0.548 0
M  V30 END ATOM
M  V30 BEGIN BOND
M  V30 1 1 1 2
M  V30 2 1 2 3
M  V30 3 2 2 4
M  V30 4 2 3 5
M  V30 5 1 3 6
M  V30 6 1 4 7
M  V30 7 1 6 8
M  V30 8 2 8 9
M  V30 9 1 7 8
M  V30 10 1 4 10
M  V30 11 1 6 11
M  V30 12 1 7 12
M  V30 END BOND
M  V30 END CTAB
M  END
>  <level_0>
2506

>  <index>
2506

>  <NO.>
2507

>  <Name>
5-fluorouracil

>  <SMILES>
O=c1[nH]cc(F)c(=O)[nH]1

>  <logBB>


>  <Class>
-1

>  <MW>
130.02

>  <nHBAcc>
2

>  <nHBDon>
2

>  <SLogP>
-0.8

>  <TopoPSA>
65.72

>  <MMFF94 Energy>
-65.743

$$$$
O=c1[nH]oc2c1CCNC2
Actelion Java MolfileCreator 2.0

  0  0  0  0  0  0              0 V3000
M  V30 BEGIN CTAB
M  V30 COUNTS 18 19 0 0 0
M  V30 BEGIN ATOM
M  V30 1 O -0.2391 -2.2337 -2.3136 0
M  V30 2 C 0.2887 -1.8167 -1.3003 0
M  V30 3 N 1.2579 -2.4274 -0.5453 0
M  V30 4 C -0.0044 -0.5564 -0.6456 0
M  V30 5 O 1.6172 -1.641 0.5755 0
M  V30 6 C 0.7942 -0.5431 0.4174 0
M  V30 7 C -0.9775 0.4988 -0.9827 0
M  V30 8 C 0.8235 0.5852 1.3913 0
M  V30 9 C -1.1513 1.4441 0.2274 0
M  V30 10 N 0.1276 1.7838 0.8782 0
M  V30 11 H 1.6943 -3.3194 -0.7186 0
M  V30 12 H -0.6124 1.065 -1.8474 0
M  V30 13 H -1.9474 0.0655 -1.2492 0
M  V30 14 H 0.3591 0.2642 2.3309 0
M  V30 15 H 1.8605 0.8605 1.6102 0
M  V30 16 H -1.8244 0.9878 0.965 0
M  V30 17 H -1.6344 2.3676 -0.111 0
M  V30 18 H -0.0422 2.4227 1.6537 0
M  V30 END ATOM
M  V30 BEGIN BOND
M  V30 1 2 1 2
M  V30 2 1 2 3
M  V30 3 1 2 4
M  V30 4 1 3 5
M  V30 5 2 4 6
M  V30 6 1 4 7
M  V30 7 1 6 8
M  V30 8 1 7 9
M  V30 9 1 8 10
M  V30 10 1 5 6
M  V30 11 1 9 10
M  V30 12 1 3 11
M  V30 13 1 7 12
M  V30 14 1 7 13
M  V30 15 1 8 14
M  V30 16 1 8 15
M  V30 17 1 9 16
M  V30 18 1 9 17
M  V30 19 1 10 18
M  V30 END BOND
M  V30 END CTAB
M  END
>  <level_0>
2507

>  <index>
2507

>  <NO.>
2508

>  <Name>
gaboxadol

>  <SMILES>
O=c1[nH]oc2c1CCNC2

>  <logBB>


>  <Class>
1

>  <MW>
140.06

>  <nHBAcc>
3

>  <nHBDon>
2

>  <SLogP>
-0.39

>  <TopoPSA>
58.03

>  <MMFF94 Energy>
-6.4176

$$$$
O=c1c(O[C@@H]2O[C@H](CO)[C@@H](O)[C@H](O)[C@H]2O)c(-c2ccc(O)c(O)c2)oc2cc(O)cc(O)c12
Actelion Java MolfileCreator 2.0

  0  0  0  0  0  0              0 V3000
M  V30 BEGIN CTAB
M  V30 COUNTS 53 56 0 0 0
M  V30 BEGIN ATOM
M  V30 1 O -1.3666 2.4127 -1.9298 0
M  V30 2 C -0.9834 1.2637 -2.1158 0
M  V30 3 C -1.0813 0.2633 -1.0157 0
M  V30 4 C -0.4056 0.7901 -3.3955 0
M  V30 5 O -1.6362 0.6537 0.1938 0
M  V30 6 C -0.6692 -0.9955 -1.2503 0
M  V30 7 C -0.001 -0.5435 -3.4748 0
M  V30 8 C -0.248 1.6154 -4.5198 0
M  V30 9 C -0.7296 1.4747 0.9567 0 CFG=2
M  V30 10 O -0.1077 -1.4302 -2.4346 0
M  V30 11 C -0.7154 -2.0429 -0.213 0
M  V30 12 C 0.5506 -1.051 -4.6526 0
M  V30 13 O -0.6238 2.9279 -4.4805 0
M  V30 14 C 0.303 1.1116 -5.703 0
M  V30 15 O 0.4535 0.7336 1.2757 0
M  V30 16 C -1.4934 1.8943 2.2319 0 CFG=2
M  V30 17 C 0.4761 -2.6661 0.1947 0
M  V30 18 C -1.9318 -2.4251 0.3792 0
M  V30 19 C 0.6975 -0.2208 -5.7558 0
M  V30 20 C 1.3735 1.4897 2.0724 0 CFG=1
M  V30 21 O -2.5777 2.7746 1.8876 0
M  V30 22 C -0.556 2.5977 3.2207 0 CFG=2
M  V30 23 C 0.4366 -3.6366 1.1897 0
M  V30 24 C -1.9615 -3.4061 1.3731 0
M  V30 25 O 1.2416 -0.7602 -6.8828 0
M  V30 26 C 0.7366 1.7999 3.4319 0 CFG=2
M  V30 27 C 2.6442 0.6428 2.2006 0
M  V30 28 O -1.1989 2.7529 4.4977 0
M  V30 29 O 1.568 -4.2585 1.6403 0
M  V30 30 C -0.7747 -4.0016 1.7707 0
M  V30 31 O 1.6141 2.5682 4.2626 0
M  V30 32 O 2.3622 -0.6005 2.8418 0
M  V30 33 O -0.8025 -4.9544 2.7478 0
M  V30 34 H -0.4637 2.3694 0.3794 0
M  V30 35 H 0.8623 -2.0907 -4.7101 0
M  V30 36 H -0.5076 3.3501 -5.346 0
M  V30 37 H 0.4252 1.753 -6.5694 0
M  V30 38 H -1.9441 1.0172 2.7129 0
M  V30 39 H 1.4188 -2.3773 -0.2605 0
M  V30 40 H -2.8655 -1.9577 0.0726 0
M  V30 41 H 1.6411 2.4163 1.5479 0
M  V30 42 H -3.0973 2.3239 1.196 0
M  V30 43 H -0.3326 3.6137 2.8713 0
M  V30 44 H -2.9004 -3.6989 1.8334 0
M  V30 45 H 1.2713 -0.0882 -7.5841 0
M  V30 46 H 0.4872 0.8789 3.9748 0
M  V30 47 H 3.0467 0.4094 1.2092 0
M  V30 48 H 3.4183 1.1598 2.775 0
M  V30 49 H -0.5395 3.1923 5.0676 0
M  V30 50 H 2.3364 -3.8747 1.1832 0
M  V30 51 H 2.2071 1.9328 4.707 0
M  V30 52 H 1.5695 -0.9624 2.3972 0
M  V30 53 H 0.1314 -5.2227 2.8576 0
M  V30 END ATOM
M  V30 BEGIN BOND
M  V30 1 2 1 2
M  V30 2 1 2 3
M  V30 3 1 2 4
M  V30 4 1 3 5
M  V30 5 2 3 6
M  V30 6 2 4 7
M  V30 7 1 4 8
M  V30 8 1 5 9
M  V30 9 1 6 10
M  V30 10 1 6 11
M  V30 11 1 7 12
M  V30 12 1 8 13
M  V30 13 2 8 14
M  V30 14 1 9 15
M  V30 15 1 9 16
M  V30 16 2 11 17
M  V30 17 1 11 18
M  V30 18 2 12 19
M  V30 19 1 15 20
M  V30 20 1 16 21
M  V30 21 1 16 22
M  V30 22 1 17 23
M  V30 23 2 18 24
M  V30 24 1 19 25
M  V30 25 1 20 26
M  V30 26 1 20 27
M  V30 27 1 22 28
M  V30 28 1 23 29
M  V30 29 2 23 30
M  V30 30 1 26 31
M  V30 31 1 27 32
M  V30 32 1 30 33
M  V30 33 1 7 10
M  V30 34 1 14 19
M  V30 35 1 22 26
M  V30 36 1 24 30
M  V30 37 1 9 34
M  V30 38 1 12 35
M  V30 39 1 13 36
M  V30 40 1 14 37
M  V30 41 1 16 38
M  V30 42 1 17 39
M  V30 43 1 18 40
M  V30 44 1 20 41
M  V30 45 1 21 42
M  V30 46 1 22 43
M  V30 47 1 24 44
M  V30 48 1 25 45
M  V30 49 1 26 46
M  V30 50 1 27 47
M  V30 51 1 27 48
M  V30 52 1 28 49
M  V30 53 1 29 50
M  V30 54 1 31 51
M  V30 55 1 32 52
M  V30 56 1 33 53
M  V30 END BOND
M  V30 BEGIN COLLECTION
M  V30 MDLV30/STEABS ATOMS=(5 9 16 20 22 26)
M  V30 END COLLECTION
M  V30 END CTAB
M  END
>  <level_0>
2508

>  <index>
2508

>  <NO.>
2509

>  <Name>
isoquercitrin

>  <SMILES>
O=c1c(O[C@@H]2O[C@H](CO)[C@@H](O)[C@H](O)[C@H]2O)c(-c2ccc(O)c(O)c2)oc2cc(O)cc(O)c12

>  <logBB>


>  <Class>
-1

>  <MW>
464.1

>  <nHBAcc>
12

>  <nHBDon>
8

>  <SLogP>
-0.54

>  <TopoPSA>
210.51

>  <MMFF94 Energy>
157.88

$$$$
O=c1cc[nH]nc1
Actelion Java MolfileCreator 2.0

  0  0  0  0  0  0              0 V3000
M  V30 BEGIN CTAB
M  V30 COUNTS 11 11 0 0 0
M  V30 BEGIN ATOM
M  V30 1 O 0.5508 -2.3623 -0.5508 0
M  V30 2 C 0.313 -1.2099 -0.2221 0
M  V30 3 C 0.5079 -0.7817 1.2085 0
M  V30 4 C -0.1647 -0.191 -1.1681 0
M  V30 5 N 0.2751 0.4255 1.6281 0
M  V30 6 C -0.3709 1.0122 -0.6304 0
M  V30 7 N -0.164 1.307 0.6905 0
M  V30 8 H 0.866 -1.5671 1.8907 0
M  V30 9 H -0.3202 -0.4476 -2.2037 0
M  V30 10 H -0.7239 1.8495 -1.2248 0
M  V30 11 H -0.3549 2.264 0.9937 0
M  V30 END ATOM
M  V30 BEGIN BOND
M  V30 1 2 1 2
M  V30 2 1 2 3
M  V30 3 1 2 4
M  V30 4 2 3 5
M  V30 5 2 4 6
M  V30 6 1 5 7
M  V30 7 1 6 7
M  V30 8 1 3 8
M  V30 9 1 4 9
M  V30 10 1 6 10
M  V30 11 1 7 11
M  V30 END BOND
M  V30 END CTAB
M  END
>  <level_0>
2509

>  <index>
2509

>  <NO.>
2510

>  <Name>
pyridazinone

>  <SMILES>
O=c1cc[nH]nc1

>  <logBB>


>  <Class>
1

>  <MW>
96.03

>  <nHBAcc>
2

>  <nHBDon>
1

>  <SLogP>
-0.23

>  <TopoPSA>
45.75

>  <MMFF94 Energy>
46.056

$$$$
O=c1ccn(C2OC(CO)C(O)C2O)c(=O)[nH]1
Actelion Java MolfileCreator 2.0

  0  0  0  0  0  0              0 V3000
M  V30 BEGIN CTAB
M  V30 COUNTS 29 30 0 0 0
M  V30 BEGIN ATOM
M  V30 1 O -1.1942 -2.3098 1.9113 0
M  V30 2 C -1.0808 -2.2768 0.6882 0
M  V30 3 N -0.7036 -1.1511 -0.0371 0
M  V30 4 N -1.3443 -3.399 -0.0543 0
M  V30 5 C -0.5903 -1.1821 -1.4136 0
M  V30 6 C -0.3644 0.0455 0.7269 0
M  V30 7 C -1.2673 -3.5022 -1.4114 0
M  V30 8 C -0.8532 -2.2827 -2.1209 0
M  V30 9 O -0.7128 1.2373 -0.0144 0
M  V30 10 C 1.138 0.1623 1.0321 0
M  V30 11 O -1.5196 -4.5334 -2.0221 0
M  V30 12 C 0.3013 2.2415 0.2606 0
M  V30 13 O 1.5902 -0.6068 2.1377 0
M  V30 14 C 1.2552 1.6532 1.2976 0
M  V30 15 C 0.9925 2.5625 -1.0657 0
M  V30 16 O 0.7757 1.9054 2.6295 0
M  V30 17 O 0.0434 3.1028 -1.9827 0
M  V30 18 H -1.6216 -4.222 0.4567 0
M  V30 19 H -0.2818 -0.2694 -1.9131 0
M  V30 20 H -0.9478 0.057 1.6561 0
M  V30 21 H -0.7767 -2.3301 -3.1986 0
M  V30 22 H 1.7349 -0.1135 0.1553 0
M  V30 23 H -0.2253 3.1258 0.6359 0
M  V30 24 H 1.1752 -0.209 2.9304 0
M  V30 25 H 2.2818 2.0257 1.2403 0
M  V30 26 H 1.7899 3.2983 -0.9279 0
M  V30 27 H 1.4153 1.666 -1.529 0
M  V30 28 H 0.8608 2.8611 2.8018 0
M  V30 29 H -0.7695 2.5686 -1.8884 0
M  V30 END ATOM
M  V30 BEGIN BOND
M  V30 1 2 1 2
M  V30 2 1 2 3
M  V30 3 1 2 4
M  V30 4 1 3 5
M  V30 5 1 3 6
M  V30 6 1 4 7
M  V30 7 2 5 8
M  V30 8 1 6 9
M  V30 9 1 6 10
M  V30 10 2 7 11
M  V30 11 1 9 12
M  V30 12 1 10 13
M  V30 13 1 10 14
M  V30 14 1 12 15
M  V30 15 1 14 16
M  V30 16 1 15 17
M  V30 17 1 7 8
M  V30 18 1 12 14
M  V30 19 1 4 18
M  V30 20 1 5 19
M  V30 21 1 6 20
M  V30 22 1 8 21
M  V30 23 1 10 22
M  V30 24 1 12 23
M  V30 25 1 13 24
M  V30 26 1 14 25
M  V30 27 1 15 26
M  V30 28 1 15 27
M  V30 29 1 16 28
M  V30 30 1 17 29
M  V30 END BOND
M  V30 END CTAB
M  END
>  <level_0>
2510

>  <index>
2510

>  <NO.>
2511

>  <Name>
58-96-8

>  <SMILES>
O=c1ccn(C2OC(CO)C(O)C2O)c(=O)[nH]1

>  <logBB>


>  <Class>
1

>  <MW>
244.07

>  <nHBAcc>
6

>  <nHBDon>
4

>  <SLogP>
-2.85

>  <TopoPSA>
124.78

>  <MMFF94 Energy>
-16.712

$$$$
OC(CCCN1CCc2c(c3cc(F)ccc3n2-c2ccc(F)cc2)C1)c1ccc(F)cc1
Actelion Java MolfileCreator 2.0

  0  0  0  0  0  0              0 V3000
M  V30 BEGIN CTAB
M  V30 COUNTS 58 62 0 0 0
M  V30 BEGIN ATOM
M  V30 1 F 5.2434 -1.6917 -0.6442 0
M  V30 2 C 4.1536 -1.9971 0.0736 0
M  V30 3 C 3.0414 -1.1599 0.0067 0
M  V30 4 C 4.1597 -3.139 0.8608 0
M  V30 5 C 1.8955 -1.4829 0.7607 0
M  V30 6 C 3.0377 -3.481 1.6195 0
M  V30 7 C 1.9133 -2.6338 1.5634 0
M  V30 8 C 0.6187 -0.875 0.9186 0
M  V30 9 N 0.6761 -2.7194 2.1954 0
M  V30 10 C -0.0937 -1.6522 1.8087 0
M  V30 11 C 0.0787 0.384 0.3094 0
M  V30 12 C 0.2823 -3.7333 3.0932 0
M  V30 13 C -1.4852 -1.3411 2.2386 0
M  V30 14 N -1.4007 0.4328 0.4431 0
M  V30 15 C -0.7333 -4.6209 2.7211 0
M  V30 16 C 0.9131 -3.8282 4.3389 0
M  V30 17 C -1.8265 0.1138 1.8309 0
M  V30 18 C -1.9355 1.7462 0.0439 0
M  V30 19 C -1.1207 -5.6194 3.6139 0
M  V30 20 C 0.5169 -4.8306 5.2236 0
M  V30 21 C -1.7362 2.0548 -1.4469 0
M  V30 22 C -0.4938 -5.7149 4.8541 0
M  V30 23 C -2.4082 3.3824 -1.8274 0
M  V30 24 F -0.8703 -6.6756 5.7082 0
M  V30 25 C -2.3347 3.7277 -3.3215 0 CFG=2
M  V30 26 O -2.9639 2.7025 -4.0864 0
M  V30 27 C -0.9291 4.004 -3.8202 0
M  V30 28 C -0.1184 2.9802 -4.3418 0
M  V30 29 C -0.406 5.3062 -3.7423 0
M  V30 30 C 1.177 3.254 -4.7831 0
M  V30 31 C 0.8897 5.5783 -4.1851 0
M  V30 32 C 1.6682 4.5504 -4.702 0
M  V30 33 F 2.9115 4.8134 -5.1247 0
M  V30 34 H 3.0706 -0.2789 -0.6252 0
M  V30 35 H 5.0449 -3.7676 0.8794 0
M  V30 36 H 3.0384 -4.38 2.2289 0
M  V30 37 H 0.5459 1.2439 0.8059 0
M  V30 38 H 0.3579 0.3989 -0.7494 0
M  V30 39 H -1.603 -1.4535 3.3216 0
M  V30 40 H -2.1801 -2.0294 1.7432 0
M  V30 41 H -1.2145 -4.5463 1.7486 0
M  V30 42 H 1.6975 -3.1315 4.6251 0
M  V30 43 H -2.9123 0.2349 1.9318 0
M  V30 44 H -1.3581 0.8148 2.5358 0
M  V30 45 H -1.4931 2.5455 0.6529 0
M  V30 46 H -3.0158 1.7596 0.2391 0
M  V30 47 H -1.9038 -6.3242 3.3528 0
M  V30 48 H 0.9858 -4.9291 6.1976 0
M  V30 49 H -2.153 1.238 -2.048 0
M  V30 50 H -0.6674 2.1205 -1.6713 0
M  V30 51 H -1.9688 4.1952 -1.2358 0
M  V30 52 H -3.4679 3.3161 -1.548 0
M  V30 53 H -2.9367 4.6299 -3.4893 0
M  V30 54 H -2.7587 2.8792 -5.0206 0
M  V30 55 H -0.4911 1.9582 -4.3951 0
M  V30 56 H -1.006 6.1179 -3.3352 0
M  V30 57 H 1.8047 2.4647 -5.1842 0
M  V30 58 H 1.2967 6.5829 -4.1288 0
M  V30 END ATOM
M  V30 BEGIN BOND
M  V30 1 1 1 2
M  V30 2 2 2 3
M  V30 3 1 2 4
M  V30 4 1 3 5
M  V30 5 2 4 6
M  V30 6 2 5 7
M  V30 7 1 5 8
M  V30 8 1 7 9
M  V30 9 2 8 10
M  V30 10 1 8 11
M  V30 11 1 9 12
M  V30 12 1 10 13
M  V30 13 1 11 14
M  V30 14 2 12 15
M  V30 15 1 12 16
M  V30 16 1 13 17
M  V30 17 1 14 18
M  V30 18 1 15 19
M  V30 19 2 16 20
M  V30 20 1 18 21
M  V30 21 2 19 22
M  V30 22 1 21 23
M  V30 23 1 22 24
M  V30 24 1 23 25
M  V30 25 1 25 26
M  V30 26 1 25 27
M  V30 27 2 27 28
M  V30 28 1 27 29
M  V30 29 1 28 30
M  V30 30 2 29 31
M  V30 31 2 30 32
M  V30 32 1 32 33
M  V30 33 1 6 7
M  V30 34 1 9 10
M  V30 35 1 14 17
M  V30 36 1 20 22
M  V30 37 1 31 32
M  V30 38 1 3 34
M  V30 39 1 4 35
M  V30 40 1 6 36
M  V30 41 1 11 37
M  V30 42 1 11 38
M  V30 43 1 13 39
M  V30 44 1 13 40
M  V30 45 1 15 41
M  V30 46 1 16 42
M  V30 47 1 17 43
M  V30 48 1 17 44
M  V30 49 1 18 45
M  V30 50 1 18 46
M  V30 51 1 19 47
M  V30 52 1 20 48
M  V30 53 1 21 49
M  V30 54 1 21 50
M  V30 55 1 23 51
M  V30 56 1 23 52
M  V30 57 1 25 53
M  V30 58 1 26 54
M  V30 59 1 28 55
M  V30 60 1 29 56
M  V30 61 1 30 57
M  V30 62 1 31 58
M  V30 END BOND
M  V30 BEGIN COLLECTION
M  V30 MDLV30/STERAC1 ATOMS=(1 25)
M  V30 END COLLECTION
M  V30 END CTAB
M  END
>  <level_0>
2514

>  <index>
2514

>  <NO.>
2515

>  <Name>
flutroline

>  <SMILES>
OC(CCCN1CCc2c(c3cc(F)ccc3n2-c2ccc(F)cc2)C1)c1ccc(F)cc1

>  <logBB>


>  <Class>
1

>  <MW>
450.19

>  <nHBAcc>
2

>  <nHBDon>
1

>  <SLogP>
5.92

>  <TopoPSA>
28.4

>  <MMFF94 Energy>
95.488

$$$$
OC1(c2ccc(Cl)c(C(F)(F)F)c2)CCN(CCCC(c2ccc(F)cc2)c2ccc(F)cc2)CC1
Actelion Java MolfileCreator 2.0

  0  0  0  0  0  0              0 V3000
M  V30 BEGIN CTAB
M  V30 COUNTS 63 66 0 0 0
M  V30 BEGIN ATOM
M  V30 1 Cl 6.0247 -0.9751 5.6167 0
M  V30 2 C 4.5513 -0.4152 4.9142 0
M  V30 3 C 3.373 -1.1659 4.9558 0
M  V30 4 C 4.567 0.833 4.2921 0
M  V30 5 C 2.2073 -0.6353 4.3571 0
M  V30 6 C 3.329 -2.5165 5.6213 0
M  V30 7 C 3.4071 1.3419 3.7053 0
M  V30 8 C 2.2006 0.6192 3.7237 0
M  V30 9 F 2.0941 -3.0976 5.5633 0
M  V30 10 F 4.1759 -3.4198 5.0567 0
M  V30 11 F 3.6381 -2.4691 6.9461 0
M  V30 12 C 0.9559 1.2247 3.0606 0
M  V30 13 O 0.8135 2.5573 3.5841 0
M  V30 14 C -0.3621 0.4858 3.3492 0
M  V30 15 C 1.1524 1.3221 1.5391 0
M  V30 16 C -1.5369 1.0994 2.586 0
M  V30 17 C -0.0849 1.8775 0.8299 0
M  V30 18 N -1.2835 1.0794 1.1362 0
M  V30 19 C -2.4705 1.5781 0.4173 0
M  V30 20 C -2.4143 1.3903 -1.1067 0
M  V30 21 C -2.202 -0.0749 -1.5182 0
M  V30 22 C -2.1869 -0.2684 -3.0554 0
M  V30 23 C -0.9932 0.4223 -3.7124 0
M  V30 24 C -2.2994 -1.7284 -3.501 0
M  V30 25 C -1.2072 1.4328 -4.6667 0
M  V30 26 C 0.3284 0.0682 -3.3882 0
M  V30 27 C -1.8129 -2.7984 -2.7301 0
M  V30 28 C -2.8856 -2.0149 -4.7493 0
M  V30 29 C -0.1274 2.0764 -5.2734 0
M  V30 30 C 1.4063 0.7133 -3.9965 0
M  V30 31 C -1.9244 -4.114 -3.1866 0
M  V30 32 C -2.9955 -3.3301 -5.2039 0
M  V30 33 C 1.1682 1.7113 -4.9321 0
M  V30 34 C -2.5153 -4.3674 -4.4171 0
M  V30 35 F 2.2032 2.3308 -5.5144 0
M  V30 36 F -2.6198 -5.6298 -4.8522 0
M  V30 37 H 5.4822 1.4204 4.258 0
M  V30 38 H 1.2987 -1.2346 4.3964 0
M  V30 39 H 3.4491 2.3215 3.2287 0
M  V30 40 H 1.0123 2.5183 4.536 0
M  V30 41 H -0.2869 -0.5704 3.061 0
M  V30 42 H -0.5913 0.5197 4.422 0
M  V30 43 H 1.9958 1.9808 1.2967 0
M  V30 44 H 1.3915 0.3322 1.1272 0
M  V30 45 H -1.7353 2.1191 2.9411 0
M  V30 46 H -2.4284 0.5015 2.8131 0
M  V30 47 H 0.127 1.8508 -0.2441 0
M  V30 48 H -0.2344 2.9306 1.102 0
M  V30 49 H -2.6416 2.639 0.6421 0
M  V30 50 H -3.3569 1.0365 0.7732 0
M  V30 51 H -1.6343 2.0293 -1.5333 0
M  V30 52 H -3.363 1.7453 -1.5289 0
M  V30 53 H -3.0167 -0.6724 -1.0875 0
M  V30 54 H -1.2718 -0.4478 -1.0745 0
M  V30 55 H -3.1044 0.2202 -3.4166 0
M  V30 56 H -2.2176 1.727 -4.9423 0
M  V30 57 H 0.5279 -0.7162 -2.6619 0
M  V30 58 H -1.337 -2.6261 -1.7681 0
M  V30 59 H -3.2564 -1.2084 -5.3789 0
M  V30 60 H -0.2887 2.8575 -6.0092 0
M  V30 61 H 2.4269 0.4407 -3.7488 0
M  V30 62 H -1.5506 -4.9405 -2.5909 0
M  V30 63 H -3.4474 -3.5491 -6.1656 0
M  V30 END ATOM
M  V30 BEGIN BOND
M  V30 1 1 1 2
M  V30 2 2 2 3
M  V30 3 1 2 4
M  V30 4 1 3 5
M  V30 5 1 3 6
M  V30 6 2 4 7
M  V30 7 2 5 8
M  V30 8 1 6 9
M  V30 9 1 6 10
M  V30 10 1 6 11
M  V30 11 1 8 12
M  V30 12 1 12 13
M  V30 13 1 12 14
M  V30 14 1 12 15
M  V30 15 1 14 16
M  V30 16 1 15 17
M  V30 17 1 16 18
M  V30 18 1 18 19
M  V30 19 1 19 20
M  V30 20 1 20 21
M  V30 21 1 21 22
M  V30 22 1 22 23
M  V30 23 1 22 24
M  V30 24 2 23 25
M  V30 25 1 23 26
M  V30 26 2 24 27
M  V30 27 1 24 28
M  V30 28 1 25 29
M  V30 29 2 26 30
M  V30 30 1 27 31
M  V30 31 2 28 32
M  V30 32 2 29 33
M  V30 33 2 31 34
M  V30 34 1 33 35
M  V30 35 1 34 36
M  V30 36 1 7 8
M  V30 37 1 17 18
M  V30 38 1 30 33
M  V30 39 1 32 34
M  V30 40 1 4 37
M  V30 41 1 5 38
M  V30 42 1 7 39
M  V30 43 1 13 40
M  V30 44 1 14 41
M  V30 45 1 14 42
M  V30 46 1 15 43
M  V30 47 1 15 44
M  V30 48 1 16 45
M  V30 49 1 16 46
M  V30 50 1 17 47
M  V30 51 1 17 48
M  V30 52 1 19 49
M  V30 53 1 19 50
M  V30 54 1 20 51
M  V30 55 1 20 52
M  V30 56 1 21 53
M  V30 57 1 21 54
M  V30 58 1 22 55
M  V30 59 1 25 56
M  V30 60 1 26 57
M  V30 61 1 27 58
M  V30 62 1 28 59
M  V30 63 1 29 60
M  V30 64 1 30 61
M  V30 65 1 31 62
M  V30 66 1 32 63
M  V30 END BOND
M  V30 END CTAB
M  END
>  <level_0>
2523

>  <index>
2523

>  <NO.>
2524

>  <Name>
penfluridol

>  <SMILES>
OC1(c2ccc(Cl)c(C(F)(F)F)c2)CCN(CCCC(c2ccc(F)cc2)c2ccc(F)cc2)CC1

>  <logBB>


>  <Class>
1

>  <MW>
523.17

>  <nHBAcc>
2

>  <nHBDon>
1

>  <SLogP>
7.53

>  <TopoPSA>
23.47

>  <MMFF94 Energy>
79.691

$$$$
OC1OC(COCCOC(O)C(Cl)(Cl)Cl)C(OC2OC(COCCOCCOC(O)C(Cl)(Cl)Cl)CC(OC(O)C(Cl)(Cl)Cl)C2O)C(OCCOCCOC(O)C(Cl)(Cl)Cl)C1O
Actelion Java MolfileCreator 2.0

  0  0  0  0  0  0              0 V3000
M  V30 BEGIN CTAB
M  V30 COUNTS 107 108 0 0 0
M  V30 BEGIN ATOM
M  V30 1 Cl -4.2807 1.761 -3.2723 0
M  V30 2 C -5.6273 1.4886 -2.1134 0
M  V30 3 Cl -7.1638 1.5774 -3.0544 0
M  V30 4 Cl -5.6276 2.8111 -0.9015 0
M  V30 5 C -5.485 0.0736 -1.4453 0
M  V30 6 O -4.3063 -0.0055 -0.6313 0
M  V30 7 O -6.6137 -0.239 -0.6204 0
M  V30 8 C -3.8633 -1.3422 -0.3783 0
M  V30 9 C -2.8685 -1.8188 -1.4524 0
M  V30 10 C -3.2252 -1.3715 1.0126 0
M  V30 11 O -2.7654 -3.2503 -1.3647 0
M  V30 12 C -1.4739 -1.1675 -1.2934 0
M  V30 13 C -1.8769 -0.6557 1.008 0
M  V30 14 O -1.0175 -1.2956 0.0537 0
M  V30 15 O -1.4859 0.1862 -1.743 0
M  V30 16 C -1.2176 -0.718 2.398 0
M  V30 17 C -0.1885 0.8077 -1.7662 0
M  V30 18 O -0.1861 0.2685 2.5359 0
M  V30 19 C 0.6452 0.3617 -2.9878 0
M  V30 20 C -0.3547 2.3506 -1.8052 0
M  V30 21 C 1.1105 -0.1492 2.099 0
M  V30 22 O 1.9757 0.8703 -2.7796 0
M  V30 23 C -0.0087 0.9015 -4.268 0
M  V30 24 O -0.9544 2.7805 -3.0458 0
M  V30 25 C -1.2353 2.8492 -0.6521 0
M  V30 26 C 1.88 -0.9021 3.1887 0
M  V30 27 C 2.9825 0.2022 -3.5516 0
M  V30 28 O 0.7259 0.5389 -5.4453 0
M  V30 29 C -0.1655 2.4243 -4.1653 0
M  V30 30 O -1.1343 4.2789 -0.5637 0
M  V30 31 O 1.4044 -2.2456 3.2688 0
M  V30 32 C 4.3111 0.3179 -2.8052 0
M  V30 33 O -0.8406 2.8733 -5.3354 0
M  V30 34 C -2.0002 4.7963 0.4451 0
M  V30 35 C 2.2767 -3.0962 4.016 0
M  V30 36 O 4.2496 -0.4984 -1.6293 0
M  V30 37 C -1.8857 6.3163 0.4751 0
M  V30 38 C 1.641 -4.4823 4.088 0
M  V30 39 C 5.3873 -0.306 -0.784 0
M  V30 40 O -2.7151 6.8317 1.5172 0
M  V30 41 O 1.4958 -4.9974 2.7587 0
M  V30 42 C 5.2475 -1.2257 0.4266 0
M  V30 43 C -2.6735 8.2617 1.5899 0
M  V30 44 C 0.7261 -6.2018 2.7242 0
M  V30 45 O 5.589 -2.5626 0.0441 0
M  V30 46 O -3.3568 8.7844 0.4455 0
M  V30 47 C -3.2625 8.7874 2.9452 0
M  V30 48 O 1.5878 -7.2717 3.1191 0
M  V30 49 C 0.0515 -6.4153 1.325 0
M  V30 50 C 5.0998 -3.5418 0.9668 0
M  V30 51 Cl -2.3892 8.0827 4.3453 0
M  V30 52 Cl -5.0072 8.3717 3.0759 0
M  V30 53 Cl -3.1133 10.5777 3.0379 0
M  V30 54 Cl -0.9864 -7.8828 1.35 0
M  V30 55 Cl 1.2873 -6.6295 0.0425 0
M  V30 56 Cl -0.9871 -5.0091 0.8936 0
M  V30 57 O 5.703 -3.2974 2.2464 0
M  V30 58 C 5.3521 -4.9988 0.4438 0
M  V30 59 Cl 4.6507 -6.2018 1.587 0
M  V30 60 Cl 7.1224 -5.3205 0.346 0
M  V30 61 Cl 4.6257 -5.2568 -1.1708 0
M  V30 62 H -5.4367 -0.677 -2.2455 0
M  V30 63 H -6.7843 -1.1904 -0.7113 0
M  V30 64 H -4.7261 -2.0199 -0.347 0
M  V30 65 H -3.2577 -1.584 -2.449 0
M  V30 66 H -3.0854 -2.416 1.317 0
M  V30 67 H -3.8945 -0.8954 1.739 0
M  V30 68 H -2.1261 -3.4576 -0.6533 0
M  V30 69 H -0.7773 -1.7462 -1.9075 0
M  V30 70 H -1.9997 0.3968 0.7334 0
M  V30 71 H -0.8417 -1.7213 2.6136 0
M  V30 72 H -1.9632 -0.4706 3.1615 0
M  V30 73 H 0.352 0.5661 -0.8431 0
M  V30 74 H 0.6925 -0.7303 -3.04 0
M  V30 75 H 0.6243 2.8417 -1.7273 0
M  V30 76 H 1.6575 0.7703 1.8661 0
M  V30 77 H 1.0499 -0.7414 1.1826 0
M  V30 78 H -1.0008 0.4451 -4.378 0
M  V30 79 H -0.8922 2.4244 0.2971 0
M  V30 80 H -2.2827 2.5788 -0.8239 0
M  V30 81 H 2.9445 -0.9098 2.9307 0
M  V30 82 H 1.7425 -0.4224 4.1635 0
M  V30 83 H 3.065 0.6983 -4.5225 0
M  V30 84 H 2.7307 -0.8547 -3.6902 0
M  V30 85 H 0.3181 1.0702 -6.1597 0
M  V30 86 H 0.8042 2.9344 -4.1366 0
M  V30 87 H 5.131 -0.0359 -3.4387 0
M  V30 88 H 4.4887 1.3599 -2.5156 0
M  V30 89 H -1.1354 3.7682 -5.0894 0
M  V30 90 H -1.7263 4.3816 1.4226 0
M  V30 91 H -3.0381 4.5099 0.239 0
M  V30 92 H 2.4158 -2.6912 5.0238 0
M  V30 93 H 3.2411 -3.1524 3.5031 0
M  V30 94 H -0.8424 6.6044 0.6508 0
M  V30 95 H -2.1869 6.7256 -0.4961 0
M  V30 96 H 2.2693 -5.1586 4.6761 0
M  V30 97 H 0.6523 -4.397 4.5537 0
M  V30 98 H 5.4057 0.7372 -0.451 0
M  V30 99 H 6.3001 -0.5361 -1.3442 0
M  V30 100 H 5.9385 -0.9073 1.2138 0
M  V30 101 H 4.2183 -1.1896 0.8011 0
M  V30 102 H -1.6278 8.588 1.5204 0
M  V30 103 H -0.0745 -6.1445 3.4728 0
M  V30 104 H -4.3041 8.6099 0.5943 0
M  V30 105 H 2.2347 -7.3755 2.3965 0
M  V30 106 H 4.0177 -3.3994 1.0824 0
M  V30 107 H 6.6156 -3.6342 2.1794 0
M  V30 END ATOM
M  V30 BEGIN BOND
M  V30 1 1 1 2
M  V30 2 1 2 3
M  V30 3 1 2 4
M  V30 4 1 2 5
M  V30 5 1 5 6
M  V30 6 1 5 7
M  V30 7 1 6 8
M  V30 8 1 8 9
M  V30 9 1 8 10
M  V30 10 1 9 11
M  V30 11 1 9 12
M  V30 12 1 10 13
M  V30 13 1 12 14
M  V30 14 1 12 15
M  V30 15 1 13 16
M  V30 16 1 15 17
M  V30 17 1 16 18
M  V30 18 1 17 19
M  V30 19 1 17 20
M  V30 20 1 18 21
M  V30 21 1 19 22
M  V30 22 1 19 23
M  V30 23 1 20 24
M  V30 24 1 20 25
M  V30 25 1 21 26
M  V30 26 1 22 27
M  V30 27 1 23 28
M  V30 28 1 23 29
M  V30 29 1 25 30
M  V30 30 1 26 31
M  V30 31 1 27 32
M  V30 32 1 29 33
M  V30 33 1 30 34
M  V30 34 1 31 35
M  V30 35 1 32 36
M  V30 36 1 34 37
M  V30 37 1 35 38
M  V30 38 1 36 39
M  V30 39 1 37 40
M  V30 40 1 38 41
M  V30 41 1 39 42
M  V30 42 1 40 43
M  V30 43 1 41 44
M  V30 44 1 42 45
M  V30 45 1 43 46
M  V30 46 1 43 47
M  V30 47 1 44 48
M  V30 48 1 44 49
M  V30 49 1 45 50
M  V30 50 1 47 51
M  V30 51 1 47 52
M  V30 52 1 47 53
M  V30 53 1 49 54
M  V30 54 1 49 55
M  V30 55 1 49 56
M  V30 56 1 50 57
M  V30 57 1 50 58
M  V30 58 1 58 59
M  V30 59 1 58 60
M  V30 60 1 58 61
M  V30 61 1 13 14
M  V30 62 1 24 29
M  V30 63 1 5 62
M  V30 64 1 7 63
M  V30 65 1 8 64
M  V30 66 1 9 65
M  V30 67 1 10 66
M  V30 68 1 10 67
M  V30 69 1 11 68
M  V30 70 1 12 69
M  V30 71 1 13 70
M  V30 72 1 16 71
M  V30 73 1 16 72
M  V30 74 1 17 73
M  V30 75 1 19 74
M  V30 76 1 20 75
M  V30 77 1 21 76
M  V30 78 1 21 77
M  V30 79 1 23 78
M  V30 80 1 25 79
M  V30 81 1 25 80
M  V30 82 1 26 81
M  V30 83 1 26 82
M  V30 84 1 27 83
M  V30 85 1 27 84
M  V30 86 1 28 85
M  V30 87 1 29 86
M  V30 88 1 32 87
M  V30 89 1 32 88
M  V30 90 1 33 89
M  V30 91 1 34 90
M  V30 92 1 34 91
M  V30 93 1 35 92
M  V30 94 1 35 93
M  V30 95 1 37 94
M  V30 96 1 37 95
M  V30 97 1 38 96
M  V30 98 1 38 97
M  V30 99 1 39 98
M  V30 100 1 39 99
M  V30 101 1 42 100
M  V30 102 1 42 101
M  V30 103 1 43 102
M  V30 104 1 44 103
M  V30 105 1 46 104
M  V30 106 1 48 105
M  V30 107 1 50 106
M  V30 108 1 57 107
M  V30 END BOND
M  V30 END CTAB
M  END
>  <level_0>
2528

>  <index>
2528

>  <NO.>
2529

>  <Name>
celucloral

>  <SMILES>
OC1OC(COCCOC(O)C(Cl)(Cl)Cl)C(OC2OC(COCCOCCOC(O)C(Cl)(Cl)Cl)CC(OC(O)C(Cl)(Cl)Cl)C2O)C(OCCOCCOC(O)C(Cl)(Cl)Cl)C1O

>  <logBB>


>  <Class>
1

>  <MW>
1129.89

>  <nHBAcc>
19

>  <nHBDon>
7

>  <SLogP>
2.57

>  <TopoPSA>
252.37

>  <MMFF94 Energy>
468.81

$$$$
OCCC1CCN(CC/C=C2\c3ccc(F)cc3Sc3ccc(C(F)(F)F)cc32)CC1
Actelion Java MolfileCreator 2.0

  0  0  0  0  0  0              0 V3000
M  V30 BEGIN CTAB
M  V30 COUNTS 56 59 0 0 0
M  V30 BEGIN ATOM
M  V30 1 S -1.5502 -4.5742 -3.0204 0
M  V30 2 C -2.4547 -3.3892 -2.0252 0
M  V30 3 C -0.0852 -4.8389 -2.024 0
M  V30 4 C -1.8235 -2.554 -1.0803 0
M  V30 5 C -3.8451 -3.3375 -2.1851 0
M  V30 6 C 0.373 -3.8962 -1.086 0
M  V30 7 C 0.61 -6.0434 -2.1936 0
M  V30 8 C -0.3425 -2.5948 -0.9609 0
M  V30 9 C -2.6176 -1.7501 -0.245 0
M  V30 10 C -4.602 -2.4991 -1.3767 0
M  V30 11 C 1.4865 -4.2111 -0.2865 0
M  V30 12 C 1.7308 -6.3339 -1.4122 0
M  V30 13 C 0.4197 -1.4759 -0.9326 0
M  V30 14 C -4.004 -1.7151 -0.4004 0
M  V30 15 F -5.9325 -2.4634 -1.5266 0
M  V30 16 C 2.1705 -5.4289 -0.438 0
M  V30 17 C 0.0029 -0.026 -1.001 0
M  V30 18 C 3.3819 -5.7322 0.4092 0
M  V30 19 C 0.2843 0.7023 0.3256 0
M  V30 20 F 4.5195 -5.19 -0.1053 0
M  V30 21 F 3.2769 -5.2471 1.6779 0
M  V30 22 F 3.627 -7.0654 0.5403 0
M  V30 23 N -0.3049 2.0539 0.3937 0
M  V30 24 C 0.3172 2.9767 -0.5687 0
M  V30 25 C -0.1998 2.5751 1.7667 0
M  V30 26 C -0.3143 4.3711 -0.4995 0
M  V30 27 C -0.8546 3.9525 1.8955 0
M  V30 28 C -0.2704 4.9755 0.912 0
M  V30 29 C 1.1552 5.4375 1.271 0
M  V30 30 C 1.2317 6.2252 2.5743 0
M  V30 31 O 2.568 6.6781 2.7518 0
M  V30 32 H -4.3523 -3.9587 -2.9169 0
M  V30 33 H 0.2745 -6.7728 -2.9285 0
M  V30 34 H -2.165 -1.1401 0.5324 0
M  V30 35 H 1.8272 -3.5047 0.4701 0
M  V30 36 H 2.2514 -7.2794 -1.5603 0
M  V30 37 H 1.5053 -1.5811 -0.9328 0
M  V30 38 H -4.617 -1.0814 0.2329 0
M  V30 39 H -1.0469 0.0879 -1.2849 0
M  V30 40 H 0.5803 0.4366 -1.8107 0
M  V30 41 H -0.142 0.0964 1.1361 0
M  V30 42 H 1.3674 0.7439 0.5045 0
M  V30 43 H 0.1711 2.6119 -1.5911 0
M  V30 44 H 1.3995 3.0441 -0.4027 0
M  V30 45 H -0.7174 1.8965 2.4562 0
M  V30 46 H 0.8474 2.6221 2.0904 0
M  V30 47 H 0.1829 5.0362 -1.2155 0
M  V30 48 H -1.3622 4.3004 -0.8213 0
M  V30 49 H -0.7742 4.3049 2.9288 0
M  V30 50 H -1.9303 3.8495 1.6965 0
M  V30 51 H -0.9154 5.8641 0.9172 0
M  V30 52 H 1.5435 6.0736 0.4642 0
M  V30 53 H 1.8497 4.5912 1.3256 0
M  V30 54 H 0.5706 7.0969 2.5434 0
M  V30 55 H 0.9693 5.6051 3.4355 0
M  V30 56 H 2.5863 7.1994 3.5728 0
M  V30 END ATOM
M  V30 BEGIN BOND
M  V30 1 1 1 2
M  V30 2 1 1 3
M  V30 3 2 2 4
M  V30 4 1 2 5
M  V30 5 2 3 6
M  V30 6 1 3 7
M  V30 7 1 4 8
M  V30 8 1 4 9
M  V30 9 2 5 10
M  V30 10 1 6 11
M  V30 11 2 7 12
M  V30 12 2 8 13
M  V30 13 2 9 14
M  V30 14 1 10 15
M  V30 15 2 11 16
M  V30 16 1 13 17
M  V30 17 1 16 18
M  V30 18 1 17 19
M  V30 19 1 18 20
M  V30 20 1 18 21
M  V30 21 1 18 22
M  V30 22 1 19 23
M  V30 23 1 23 24
M  V30 24 1 23 25
M  V30 25 1 24 26
M  V30 26 1 25 27
M  V30 27 1 26 28
M  V30 28 1 28 29
M  V30 29 1 29 30
M  V30 30 1 30 31
M  V30 31 1 6 8
M  V30 32 1 10 14
M  V30 33 1 12 16
M  V30 34 1 27 28
M  V30 35 1 5 32
M  V30 36 1 7 33
M  V30 37 1 9 34
M  V30 38 1 11 35
M  V30 39 1 12 36
M  V30 40 1 13 37
M  V30 41 1 14 38
M  V30 42 1 17 39
M  V30 43 1 17 40
M  V30 44 1 19 41
M  V30 45 1 19 42
M  V30 46 1 24 43
M  V30 47 1 24 44
M  V30 48 1 25 45
M  V30 49 1 25 46
M  V30 50 1 26 47
M  V30 51 1 26 48
M  V30 52 1 27 49
M  V30 53 1 27 50
M  V30 54 1 28 51
M  V30 55 1 29 52
M  V30 56 1 29 53
M  V30 57 1 30 54
M  V30 58 1 30 55
M  V30 59 1 31 56
M  V30 END BOND
M  V30 END CTAB
M  END
>  <level_0>
2530

>  <index>
2530

>  <NO.>
2531

>  <Name>
piflutixol

>  <SMILES>
OCCC1CCN(CC/C=C2\c3ccc(F)cc3Sc3ccc(C(F)(F)F)cc32)CC1

>  <logBB>


>  <Class>
1

>  <MW>
451.16

>  <nHBAcc>
3

>  <nHBDon>
1

>  <SLogP>
6.23

>  <TopoPSA>
23.47

>  <MMFF94 Energy>
97.958

$$$$
OCCOC1CCN(CCCN2c3ccccc3Sc3ccc(C(F)(F)F)cc32)CC1
Actelion Java MolfileCreator 2.0

  0  0  0  0  0  0              0 V3000
M  V30 BEGIN CTAB
M  V30 COUNTS 58 61 0 0 0
M  V30 BEGIN ATOM
M  V30 1 S -0.6488 -3.9788 -1.379 0
M  V30 2 C -1.2514 -2.8078 -2.5787 0
M  V30 3 C -1.8206 -3.7772 -0.0526 0
M  V30 4 C -2.1815 -1.798 -2.2636 0
M  V30 5 C -0.7282 -2.9188 -3.8781 0
M  V30 6 C -2.7089 -2.6858 0.0248 0
M  V30 7 C -1.8163 -4.7709 0.9425 0
M  V30 8 N -2.7054 -1.6556 -0.9517 0
M  V30 9 C -2.5906 -0.9483 -3.3131 0
M  V30 10 C -1.1339 -2.0512 -4.8895 0
M  V30 11 C -3.633 -2.6874 1.09 0
M  V30 12 C -2.7141 -4.7212 2.0047 0
M  V30 13 C -2.9799 -0.2766 -0.4791 0
M  V30 14 C -2.0711 -1.0537 -4.6169 0
M  V30 15 C -3.6325 -3.684 2.0714 0
M  V30 16 C -1.7256 0.612 -0.4235 0
M  V30 17 C -2.5553 -0.1303 -5.7068 0
M  V30 18 C -0.6722 0.0861 0.5598 0
M  V30 19 F -2.883 1.11 -5.2475 0
M  V30 20 F -1.634 0.0697 -6.6899 0
M  V30 21 F -3.6697 -0.6041 -6.3288 0
M  V30 22 N 0.4967 0.9833 0.6618 0
M  V30 23 C 0.2015 2.1813 1.4642 0
M  V30 24 C 1.6418 0.2499 1.2261 0
M  V30 25 C 1.4087 3.1118 1.5372 0
M  V30 26 C 2.8928 1.1229 1.2958 0
M  V30 27 C 2.6307 2.3928 2.1025 0
M  V30 28 O 3.7301 3.3067 2.0436 0
M  V30 29 C 4.8886 2.8644 2.7587 0
M  V30 30 C 5.8608 4.0337 2.9 0
M  V30 31 O 5.4189 4.9169 3.931 0
M  V30 32 H 2.0E-4 -3.6933 -4.1108 0
M  V30 33 H -1.1155 -5.6011 0.8855 0
M  V30 34 H -3.3471 -0.187 -3.1367 0
M  V30 35 H -0.7185 -2.1631 -5.8897 0
M  V30 36 H -4.4068 -1.928 1.1583 0
M  V30 37 H -2.7079 -5.4999 2.7624 0
M  V30 38 H -3.4244 -0.2498 0.5206 0
M  V30 39 H -3.7372 0.1958 -1.1152 0
M  V30 40 H -4.3603 -3.6513 2.8783 0
M  V30 41 H -2.0569 1.6134 -0.1268 0
M  V30 42 H -1.2763 0.7189 -1.4173 0
M  V30 43 H -1.1161 -0.0887 1.5482 0
M  V30 44 H -0.3332 -0.8874 0.1877 0
M  V30 45 H -0.1092 1.9021 2.4796 0
M  V30 46 H -0.6217 2.7495 1.0195 0
M  V30 47 H 1.875 -0.6163 0.5948 0
M  V30 48 H 1.402 -0.1325 2.2272 0
M  V30 49 H 1.173 3.984 2.1595 0
M  V30 50 H 1.638 3.5124 0.5406 0
M  V30 51 H 3.7088 0.5461 1.7455 0
M  V30 52 H 3.2318 1.3861 0.2852 0
M  V30 53 H 2.4327 2.1388 3.1523 0
M  V30 54 H 5.3685 2.0657 2.1854 0
M  V30 55 H 4.5987 2.4931 3.7479 0
M  V30 56 H 6.8537 3.6712 3.1811 0
M  V30 57 H 5.9269 4.6004 1.9657 0
M  V30 58 H 5.9051 5.7505 3.8149 0
M  V30 END ATOM
M  V30 BEGIN BOND
M  V30 1 1 1 2
M  V30 2 1 1 3
M  V30 3 2 2 4
M  V30 4 1 2 5
M  V30 5 2 3 6
M  V30 6 1 3 7
M  V30 7 1 4 8
M  V30 8 1 4 9
M  V30 9 2 5 10
M  V30 10 1 6 11
M  V30 11 2 7 12
M  V30 12 1 8 13
M  V30 13 2 9 14
M  V30 14 2 11 15
M  V30 15 1 13 16
M  V30 16 1 14 17
M  V30 17 1 16 18
M  V30 18 1 17 19
M  V30 19 1 17 20
M  V30 20 1 17 21
M  V30 21 1 18 22
M  V30 22 1 22 23
M  V30 23 1 22 24
M  V30 24 1 23 25
M  V30 25 1 24 26
M  V30 26 1 25 27
M  V30 27 1 27 28
M  V30 28 1 28 29
M  V30 29 1 29 30
M  V30 30 1 30 31
M  V30 31 1 6 8
M  V30 32 1 10 14
M  V30 33 1 12 15
M  V30 34 1 26 27
M  V30 35 1 5 32
M  V30 36 1 7 33
M  V30 37 1 9 34
M  V30 38 1 10 35
M  V30 39 1 11 36
M  V30 40 1 12 37
M  V30 41 1 13 38
M  V30 42 1 13 39
M  V30 43 1 15 40
M  V30 44 1 16 41
M  V30 45 1 16 42
M  V30 46 1 18 43
M  V30 47 1 18 44
M  V30 48 1 23 45
M  V30 49 1 23 46
M  V30 50 1 24 47
M  V30 51 1 24 48
M  V30 52 1 25 49
M  V30 53 1 25 50
M  V30 54 1 26 51
M  V30 55 1 26 52
M  V30 56 1 27 53
M  V30 57 1 29 54
M  V30 58 1 29 55
M  V30 59 1 30 56
M  V30 60 1 30 57
M  V30 61 1 31 58
M  V30 END BOND
M  V30 END CTAB
M  END
>  <level_0>
2543

>  <index>
2543

>  <NO.>
2544

>  <Name>
flupimazine

>  <SMILES>
OCCOC1CCN(CCCN2c3ccccc3Sc3ccc(C(F)(F)F)cc32)CC1

>  <logBB>


>  <Class>
1

>  <MW>
452.17

>  <nHBAcc>
5

>  <nHBDon>
1

>  <SLogP>
5.17

>  <TopoPSA>
35.94

>  <MMFF94 Energy>
112.85

$$$$
OC[C@@H](O)[C@H]1OC2O[C@H](C(Cl)(Cl)Cl)O[C@@H]2[C@H]1O
Actelion Java MolfileCreator 2.0

  0  0  0  0  0  0              0 V3000
M  V30 BEGIN CTAB
M  V30 COUNTS 28 29 0 0 0
M  V30 BEGIN ATOM
M  V30 1 Cl -1.5207 0.5912 -4.9061 0
M  V30 2 C -0.1733 0.7707 -3.7277 0
M  V30 3 Cl 0.3952 -0.8671 -3.262 0
M  V30 4 Cl 1.1783 1.6111 -4.5717 0
M  V30 5 C -0.6344 1.6011 -2.489 0 CFG=1
M  V30 6 O -1.7732 1.0309 -1.8165 0
M  V30 7 O 0.4251 1.8236 -1.5322 0
M  V30 8 C -1.4199 0.9486 -0.4441 0
M  V30 9 C -0.2484 1.8826 -0.2699 0 CFG=1
M  V30 10 O -0.9846 -0.3754 -0.1089 0
M  V30 11 C 0.5464 1.2174 0.8255 0 CFG=2
M  V30 12 C 0.311 -0.2684 0.5211 0 CFG=1
M  V30 13 O 0.017 1.6068 2.0935 0
M  V30 14 C 0.362 -1.1895 1.7403 0 CFG=2
M  V30 15 O 1.5106 -0.8885 2.5463 0
M  V30 16 C 0.4061 -2.6653 1.3315 0
M  V30 17 O 0.4915 -3.4604 2.5191 0
M  V30 18 H -0.9528 2.5945 -2.8323 0
M  V30 19 H -2.2771 1.198 0.1889 0
M  V30 20 H -0.5499 2.9154 -0.068 0
M  V30 21 H 1.6108 1.4718 0.7978 0
M  V30 22 H 1.0529 -0.5882 -0.2212 0
M  V30 23 H 0.5822 1.1648 2.7615 0
M  V30 24 H -0.5187 -1.0355 2.3757 0
M  V30 25 H 1.6835 -1.7066 3.0595 0
M  V30 26 H -0.4748 -2.968 0.7573 0
M  V30 27 H 1.3049 -2.8777 0.7441 0
M  V30 28 H -0.4147 -3.5529 2.8651 0
M  V30 END ATOM
M  V30 BEGIN BOND
M  V30 1 1 1 2
M  V30 2 1 2 3
M  V30 3 1 2 4
M  V30 4 1 2 5
M  V30 5 1 5 6
M  V30 6 1 5 7
M  V30 7 1 6 8
M  V30 8 1 7 9
M  V30 9 1 8 10
M  V30 10 1 9 11
M  V30 11 1 10 12
M  V30 12 1 11 13
M  V30 13 1 12 14
M  V30 14 1 14 15
M  V30 15 1 14 16
M  V30 16 1 16 17
M  V30 17 1 8 9
M  V30 18 1 11 12
M  V30 19 1 5 18
M  V30 20 1 8 19
M  V30 21 1 9 20
M  V30 22 1 11 21
M  V30 23 1 12 22
M  V30 24 1 13 23
M  V30 25 1 14 24
M  V30 26 1 15 25
M  V30 27 1 16 26
M  V30 28 1 16 27
M  V30 29 1 17 28
M  V30 END BOND
M  V30 BEGIN COLLECTION
M  V30 MDLV30/STEABS ATOMS=(5 5 9 11 12 14)
M  V30 END COLLECTION
M  V30 END CTAB
M  END
>  <level_0>
2545

>  <index>
2545

>  <NO.>
2546

>  <Name>
chloralose

>  <SMILES>
OC[C@@H](O)[C@H]1OC2O[C@H](C(Cl)(Cl)Cl)O[C@@H]2[C@H]1O

>  <logBB>


>  <Class>
1

>  <MW>
307.96

>  <nHBAcc>
6

>  <nHBDon>
3

>  <SLogP>
-0.46

>  <TopoPSA>
88.38

>  <MMFF94 Energy>
141.72

$$$$
OC[C@H]1O[C@@H](n2cnc3c2NC=NC[C@H]3O)C[C@@H]1O
Actelion Java MolfileCreator 2.0

  0  0  0  0  0  0              0 V3000
M  V30 BEGIN CTAB
M  V30 COUNTS 35 37 0 0 0
M  V30 BEGIN ATOM
M  V30 1 O 0.3983 1.594 -1.275 0
M  V30 2 C 0.6545 1.6257 0.1425 0 CFG=1
M  V30 3 C 1.6734 1.4993 -1.9513 0 CFG=1
M  V30 4 N -0.4452 1.0056 0.8535 0
M  V30 5 C 2.0027 0.9618 0.3602 0
M  V30 6 C 2.7539 1.4198 -0.8662 0 CFG=2
M  V30 7 C 1.6394 0.2826 -2.8815 0
M  V30 8 C -1.0116 -0.229 0.6664 0
M  V30 9 C -1.0999 1.5922 1.9098 0
M  V30 10 O 3.2665 2.7264 -0.5828 0
M  V30 11 O 1.4601 -0.927 -2.1446 0
M  V30 12 N -0.6496 -1.1134 -0.2879 0
M  V30 13 C -1.9947 -0.3216 1.626 0
M  V30 14 N -2.0398 0.8162 2.4033 0
M  V30 15 C -1.1908 -2.3639 -0.4825 0
M  V30 16 C -2.9142 -1.4739 1.8568 0 CFG=2
M  V30 17 N -1.8987 -3.1542 0.2375 0
M  V30 18 O -3.4402 -1.4331 3.1936 0
M  V30 19 C -2.19 -2.8128 1.6421 0
M  V30 20 H 0.6915 2.6826 0.4359 0
M  V30 21 H 1.7879 2.4058 -2.5564 0
M  V30 22 H 1.9221 -0.1299 0.3662 0
M  V30 23 H 2.4575 1.2753 1.3054 0
M  V30 24 H 3.6008 0.7761 -1.1207 0
M  V30 25 H 0.8005 0.3654 -3.58 0
M  V30 26 H 2.5734 0.2087 -3.4473 0
M  V30 27 H -0.8501 2.5804 2.2753 0
M  V30 28 H 3.8388 2.9928 -1.3244 0
M  V30 29 H 1.5473 -1.6578 -2.7868 0
M  V30 30 H 0.0395 -0.8353 -0.9942 0
M  V30 31 H -0.9415 -2.7243 -1.4959 0
M  V30 32 H -3.7671 -1.3936 1.1733 0
M  V30 33 H -3.3368 -0.4973 3.4618 0
M  V30 34 H -1.2658 -2.8612 2.2338 0
M  V30 35 H -2.8236 -3.6151 2.0411 0
M  V30 END ATOM
M  V30 BEGIN BOND
M  V30 1 1 1 2
M  V30 2 1 1 3
M  V30 3 1 2 4
M  V30 4 1 2 5
M  V30 5 1 3 6
M  V30 6 1 3 7
M  V30 7 1 4 8
M  V30 8 1 4 9
M  V30 9 1 6 10
M  V30 10 1 7 11
M  V30 11 1 8 12
M  V30 12 2 8 13
M  V30 13 2 9 14
M  V30 14 1 12 15
M  V30 15 1 13 16
M  V30 16 2 15 17
M  V30 17 1 16 18
M  V30 18 1 16 19
M  V30 19 1 5 6
M  V30 20 1 13 14
M  V30 21 1 17 19
M  V30 22 1 2 20
M  V30 23 1 3 21
M  V30 24 1 5 22
M  V30 25 1 5 23
M  V30 26 1 6 24
M  V30 27 1 7 25
M  V30 28 1 7 26
M  V30 29 1 9 27
M  V30 30 1 10 28
M  V30 31 1 11 29
M  V30 32 1 12 30
M  V30 33 1 15 31
M  V30 34 1 16 32
M  V30 35 1 18 33
M  V30 36 1 19 34
M  V30 37 1 19 35
M  V30 END BOND
M  V30 BEGIN COLLECTION
M  V30 MDLV30/STEABS ATOMS=(4 2 3 6 16)
M  V30 END COLLECTION
M  V30 END CTAB
M  END
>  <level_0>
2546

>  <index>
2546

>  <NO.>
2547

>  <Name>
pentostatin

>  <SMILES>
OC[C@H]1O[C@@H](n2cnc3c2NC=NC[C@H]3O)C[C@@H]1O

>  <logBB>


>  <Class>
1

>  <MW>
268.12

>  <nHBAcc>
7

>  <nHBDon>
4

>  <SLogP>
-0.99

>  <TopoPSA>
112.13

>  <MMFF94 Energy>
82.059

$$$$
OCc1ccccc1O[C@@H]1O[C@H](CO)[C@@H](O)[C@H](O)[C@H]1O
Actelion Java MolfileCreator 2.0

  0  0  0  0  0  0              0 V3000
M  V30 BEGIN CTAB
M  V30 COUNTS 38 39 0 0 0
M  V30 BEGIN ATOM
M  V30 1 O -1.0319 -0.6349 0.238 0
M  V30 2 C -0.023 0.3399 0.5063 0 CFG=1
M  V30 3 C -1.6451 -1.1311 1.4294 0 CFG=1
M  V30 4 O 0.5553 0.8197 -0.7191 0
M  V30 5 C -0.6271 1.5752 1.2076 0 CFG=2
M  V30 6 C -2.3572 -4.0E-4 2.1884 0 CFG=2
M  V30 7 C -2.6292 -2.2371 1.021 0
M  V30 8 C 1.4563 0.0199 -1.374 0
M  V30 9 O 0.4231 2.4944 1.5597 0
M  V30 10 C -1.3875 1.153 2.4674 0 CFG=2
M  V30 11 O -2.885 -0.4377 3.4485 0
M  V30 12 O -3.3133 -2.7585 2.1574 0
M  V30 13 C 2.1346 0.6244 -2.4526 0
M  V30 14 C 1.718 -1.3163 -1.0525 0
M  V30 15 O -2.1446 2.2579 2.9915 0
M  V30 16 C 3.0722 -0.1309 -3.1768 0
M  V30 17 C 1.8272 2.0559 -2.8245 0
M  V30 18 C 2.6565 -2.0503 -1.7813 0
M  V30 19 C 3.3349 -1.4578 -2.8404 0
M  V30 20 O 2.6836 2.5491 -3.85 0
M  V30 21 H 0.7674 -0.0794 1.1446 0
M  V30 22 H -0.8839 -1.5838 2.0794 0
M  V30 23 H -1.3028 2.1129 0.5308 0
M  V30 24 H -3.2023 0.3784 1.5997 0
M  V30 25 H -3.3692 -1.8539 0.3095 0
M  V30 26 H -2.0904 -3.0524 0.5255 0
M  V30 27 H 0.8528 2.7521 0.7241 0
M  V30 28 H -0.678 0.8765 3.2577 0
M  V30 29 H -3.2879 -1.3207 3.2913 0
M  V30 30 H -3.8484 -3.5097 1.8384 0
M  V30 31 H 1.1977 -1.8261 -0.249 0
M  V30 32 H -2.6491 1.886 3.7417 0
M  V30 33 H 3.6051 0.3157 -4.0142 0
M  V30 34 H 0.7951 2.1259 -3.1843 0
M  V30 35 H 1.9561 2.7026 -1.9498 0
M  V30 36 H 2.8528 -3.088 -1.5246 0
M  V30 37 H 4.0638 -2.0273 -3.411 0
M  V30 38 H 2.4014 3.4617 -4.0276 0
M  V30 END ATOM
M  V30 BEGIN BOND
M  V30 1 1 1 2
M  V30 2 1 1 3
M  V30 3 1 2 4
M  V30 4 1 2 5
M  V30 5 1 3 6
M  V30 6 1 3 7
M  V30 7 1 4 8
M  V30 8 1 5 9
M  V30 9 1 5 10
M  V30 10 1 6 11
M  V30 11 1 7 12
M  V30 12 2 8 13
M  V30 13 1 8 14
M  V30 14 1 10 15
M  V30 15 1 13 16
M  V30 16 1 13 17
M  V30 17 2 14 18
M  V30 18 2 16 19
M  V30 19 1 17 20
M  V30 20 1 6 10
M  V30 21 1 18 19
M  V30 22 1 2 21
M  V30 23 1 3 22
M  V30 24 1 5 23
M  V30 25 1 6 24
M  V30 26 1 7 25
M  V30 27 1 7 26
M  V30 28 1 9 27
M  V30 29 1 10 28
M  V30 30 1 11 29
M  V30 31 1 12 30
M  V30 32 1 14 31
M  V30 33 1 15 32
M  V30 34 1 16 33
M  V30 35 1 17 34
M  V30 36 1 17 35
M  V30 37 1 18 36
M  V30 38 1 19 37
M  V30 39 1 20 38
M  V30 END BOND
M  V30 BEGIN COLLECTION
M  V30 MDLV30/STEABS ATOMS=(5 2 3 5 6 10)
M  V30 END COLLECTION
M  V30 END CTAB
M  END
>  <level_0>
2548

>  <index>
2548

>  <NO.>
2549

>  <Name>
salicin

>  <SMILES>
OCc1ccccc1O[C@@H]1O[C@H](CO)[C@@H](O)[C@H](O)[C@H]1O

>  <logBB>


>  <Class>
1

>  <MW>
286.11

>  <nHBAcc>
7

>  <nHBDon>
5

>  <SLogP>
-1.64

>  <TopoPSA>
119.61

>  <MMFF94 Energy>
125.21

$$$$
CCCCC(=O)O[C@H]1CC[C@H]2[C@@H]3CCc4cc(O)ccc4[C@H]3CC[C@]12C
Actelion Java MolfileCreator 2.0

  0  0  0  0  0  0              0 V3000
M  V30 BEGIN CTAB
M  V30 COUNTS 58 61 0 0 0
M  V30 BEGIN ATOM
M  V30 1 O -0.2393 -2.0755 -2.9546 0
M  V30 2 C -1.4105 -1.8837 -2.663 0
M  V30 3 O -1.9134 -0.7342 -2.1306 0
M  V30 4 C -2.5337 -2.8783 -2.8451 0
M  V30 5 C -0.9689 0.3086 -1.8736 0 CFG=2
M  V30 6 C -2.0168 -4.2412 -3.3042 0
M  V30 7 C -0.3715 0.2694 -0.4473 0 CFG=2
M  V30 8 C -1.6912 1.6739 -1.9253 0
M  V30 9 C -3.1077 -5.3113 -3.3712 0
M  V30 10 C 0.1344 1.7238 -0.3476 0 CFG=1
M  V30 11 C 0.8346 -0.6616 -0.2668 0
M  V30 12 C -1.4653 -0.1088 0.5838 0
M  V30 13 C -1.0517 2.5491 -0.8344 0
M  V30 14 C -4.1727 -5.0263 -4.4188 0
M  V30 15 C 0.7442 2.0355 1.0193 0 CFG=1
M  V30 16 C 1.5882 -0.385 1.0481 0
M  V30 17 C 1.9737 1.105 1.2419 0 CFG=2
M  V30 18 C 1.1948 3.4923 1.144 0
M  V30 19 C 2.6789 1.4248 2.5584 0
M  V30 20 C 1.6556 3.7716 2.5714 0
M  V30 21 C 2.5514 2.7021 3.1495 0
M  V30 22 C 3.539 0.4927 3.1667 0
M  V30 23 C 3.2337 2.9948 4.345 0
M  V30 24 C 4.2179 0.7969 4.3483 0
M  V30 25 C 4.0577 2.0424 4.9311 0
M  V30 26 O 4.7349 2.2987 6.0859 0
M  V30 27 H -3.2282 -2.4643 -3.5832 0
M  V30 28 H -3.0513 -2.9875 -1.8854 0
M  V30 29 H -0.178 0.3161 -2.6364 0
M  V30 30 H -1.239 -4.585 -2.6105 0
M  V30 31 H -1.5336 -4.1439 -4.2844 0
M  V30 32 H -1.5616 2.1279 -2.9143 0
M  V30 33 H -2.7706 1.5772 -1.7614 0
M  V30 34 H -2.6367 -6.2733 -3.6056 0
M  V30 35 H -3.5825 -5.4221 -2.3894 0
M  V30 36 H 0.933 1.8685 -1.0943 0
M  V30 37 H 1.5354 -0.5296 -1.1013 0
M  V30 38 H 0.5217 -1.7121 -0.2885 0
M  V30 39 H -1.125 -0.0085 1.6177 0
M  V30 40 H -2.3653 0.506 0.4844 0
M  V30 41 H -1.7733 -1.1528 0.4534 0
M  V30 42 H -0.7401 3.5189 -1.2354 0
M  V30 43 H -1.7682 2.7388 -0.0274 0
M  V30 44 H -4.8695 -5.8681 -4.4843 0
M  V30 45 H -4.7542 -4.1345 -4.1674 0
M  V30 46 H -3.7236 -4.8807 -5.4062 0
M  V30 47 H -0.0021 1.8535 1.8033 0
M  V30 48 H 2.4881 -1.0107 1.0378 0
M  V30 49 H 0.9897 -0.727 1.9011 0
M  V30 50 H 2.7131 1.3374 0.4599 0
M  V30 51 H 0.3818 4.1831 0.8946 0
M  V30 52 H 2.0127 3.6947 0.4407 0
M  V30 53 H 0.7747 3.858 3.2205 0
M  V30 54 H 2.1729 4.7384 2.5891 0
M  V30 55 H 3.7058 -0.4878 2.7307 0
M  V30 56 H 3.1118 3.9721 4.8033 0
M  V30 57 H 4.8728 0.0618 4.8068 0
M  V30 58 H 4.5268 3.2034 6.3703 0
M  V30 END ATOM
M  V30 BEGIN BOND
M  V30 1 2 1 2
M  V30 2 1 2 3
M  V30 3 1 2 4
M  V30 4 1 3 5
M  V30 5 1 4 6
M  V30 6 1 5 7
M  V30 7 1 5 8
M  V30 8 1 6 9
M  V30 9 1 7 10
M  V30 10 1 7 11
M  V30 11 1 7 12
M  V30 12 1 8 13
M  V30 13 1 9 14
M  V30 14 1 10 15
M  V30 15 1 11 16
M  V30 16 1 15 17
M  V30 17 1 15 18
M  V30 18 1 17 19
M  V30 19 1 18 20
M  V30 20 2 19 21
M  V30 21 1 19 22
M  V30 22 1 21 23
M  V30 23 2 22 24
M  V30 24 2 23 25
M  V30 25 1 25 26
M  V30 26 1 10 13
M  V30 27 1 16 17
M  V30 28 1 20 21
M  V30 29 1 24 25
M  V30 30 1 4 27
M  V30 31 1 4 28
M  V30 32 1 5 29
M  V30 33 1 6 30
M  V30 34 1 6 31
M  V30 35 1 8 32
M  V30 36 1 8 33
M  V30 37 1 9 34
M  V30 38 1 9 35
M  V30 39 1 10 36
M  V30 40 1 11 37
M  V30 41 1 11 38
M  V30 42 1 12 39
M  V30 43 1 12 40
M  V30 44 1 12 41
M  V30 45 1 13 42
M  V30 46 1 13 43
M  V30 47 1 14 44
M  V30 48 1 14 45
M  V30 49 1 14 46
M  V30 50 1 15 47
M  V30 51 1 16 48
M  V30 52 1 16 49
M  V30 53 1 17 50
M  V30 54 1 18 51
M  V30 55 1 18 52
M  V30 56 1 20 53
M  V30 57 1 20 54
M  V30 58 1 22 55
M  V30 59 1 23 56
M  V30 60 1 24 57
M  V30 61 1 26 58
M  V30 END BOND
M  V30 BEGIN COLLECTION
M  V30 MDLV30/STEABS ATOMS=(5 5 7 10 15 17)
M  V30 END COLLECTION
M  V30 END CTAB
M  END
>  <level_0>
2591

>  <index>
2591

>  <NO.>
2592

>  <Name>
estradiol valerate

>  <SMILES>
CCCCC(=O)O[C@H]1CC[C@H]2[C@@H]3CCc4cc(O)ccc4[C@H]3CC[C@]12C

>  <logBB>


>  <Class>
-1

>  <MW>
356.24

>  <nHBAcc>
3

>  <nHBDon>
1

>  <SLogP>
5.35

>  <TopoPSA>
46.53

>  <MMFF94 Energy>
47.72

$$$$
CCOC(=O)C(N)/C=C(\C)CP(=O)(O)O
Actelion Java MolfileCreator 2.0

  0  0  0  0  0  0              0 V3000
M  V30 BEGIN CTAB
M  V30 COUNTS 31 30 0 0 0
M  V30 BEGIN ATOM
M  V30 1 P -1.6658 -0.3964 -2.6982 0
M  V30 2 O -0.6494 -1.0467 -3.5765 0
M  V30 3 O -1.2545 1.1075 -2.3222 0
M  V30 4 O -3.031 -0.1308 -3.4983 0
M  V30 5 C -2.1493 -1.1963 -1.1795 0
M  V30 6 C -0.9987 -1.3429 -0.2016 0
M  V30 7 C -1.0359 -0.7163 0.994 0
M  V30 8 C 0.123 -2.2333 -0.6642 0
M  V30 9 C 0.0056 -0.7207 2.0797 0 CFG=2
M  V30 10 N -0.6499 -1.0601 3.3628 0
M  V30 11 C 0.67 0.6724 2.1676 0
M  V30 12 O 0.4634 1.4852 3.0638 0
M  V30 13 O 1.5121 0.8692 1.1122 0
M  V30 14 C 2.1397 2.1556 1.0903 0
M  V30 15 C 2.9902 2.2438 -0.1616 0
M  V30 16 H -0.8023 1.5676 -3.0522 0
M  V30 17 H -2.8793 0.1334 -4.4241 0
M  V30 18 H -2.969 -0.6211 -0.7331 0
M  V30 19 H -2.5579 -2.1877 -1.406 0
M  V30 20 H -1.9059 -0.0977 1.2183 0
M  V30 21 H 0.7649 -1.7008 -1.372 0
M  V30 22 H 0.7512 -2.5917 0.1543 0
M  V30 23 H -0.2775 -3.1244 -1.1595 0
M  V30 24 H 0.7975 -1.4559 1.9187 0
M  V30 25 H 0.0762 -1.1199 4.0775 0
M  V30 26 H -1.2009 -0.2463 3.6486 0
M  V30 27 H 2.7718 2.2721 1.9777 0
M  V30 28 H 1.3764 2.942 1.0741 0
M  V30 29 H 3.493 3.2129 -0.2245 0
M  V30 30 H 3.7461 1.4516 -0.1708 0
M  V30 31 H 2.3738 2.1061 -1.0564 0
M  V30 END ATOM
M  V30 BEGIN BOND
M  V30 1 2 1 2
M  V30 2 1 1 3
M  V30 3 1 1 4
M  V30 4 1 1 5
M  V30 5 1 5 6
M  V30 6 2 6 7
M  V30 7 1 6 8
M  V30 8 1 7 9
M  V30 9 1 9 10
M  V30 10 1 9 11
M  V30 11 2 11 12
M  V30 12 1 11 13
M  V30 13 1 13 14
M  V30 14 1 14 15
M  V30 15 1 3 16
M  V30 16 1 4 17
M  V30 17 1 5 18
M  V30 18 1 5 19
M  V30 19 1 7 20
M  V30 20 1 8 21
M  V30 21 1 8 22
M  V30 22 1 8 23
M  V30 23 1 9 24
M  V30 24 1 10 25
M  V30 25 1 10 26
M  V30 26 1 14 27
M  V30 27 1 14 28
M  V30 28 1 15 29
M  V30 29 1 15 30
M  V30 30 1 15 31
M  V30 END BOND
M  V30 BEGIN COLLECTION
M  V30 MDLV30/STERAC1 ATOMS=(1 9)
M  V30 END COLLECTION
M  V30 END CTAB
M  END
>  <level_0>
2595

>  <index>
2595

>  <NO.>
2596

>  <Name>
cgp-39551

>  <SMILES>
CCOC(=O)C(N)/C=C(\C)CP(=O)(O)O

>  <logBB>


>  <Class>
1

>  <MW>
237.08

>  <nHBAcc>
4

>  <nHBDon>
3

>  <SLogP>
0.0

>  <TopoPSA>
109.85

>  <MMFF94 Energy>
-37.432

$$$$
CO/N=C(\C(=O)N[C@@H]1C(=O)N2C(C(=O)OCOC(=O)C(C)(C)C)=C(C)CS[C@H]12)c1csc(N)n1
Actelion Java MolfileCreator 2.0

  0  0  0  0  0  0              0 V3000
M  V30 BEGIN CTAB
M  V30 COUNTS 59 61 0 0 0
M  V30 BEGIN ATOM
M  V30 1 S 0.2438 1.3009 2.6031 0
M  V30 2 C 1.5765 2.0282 1.6123 0 CFG=1
M  V30 3 C 1.2118 -0.1909 3.0073 0
M  V30 4 N 1.8406 1.1287 0.5139 0
M  V30 5 C 1.2235 3.1008 0.5342 0 CFG=1
M  V30 6 C 1.8345 -0.8551 1.793 0
M  V30 7 C 2.081 -0.1989 0.6366 0
M  V30 8 C 1.7451 2.027 -0.4832 0
M  V30 9 N -0.1977 3.4916 0.3742 0
M  V30 10 C 2.0996 -2.3272 1.9916 0
M  V30 11 C 2.5642 -0.9223 -0.5715 0
M  V30 12 O 1.9241 1.9473 -1.6745 0
M  V30 13 C -0.7904 4.4066 1.2182 0
M  V30 14 O 3.7186 -1.2861 -0.7283 0
M  V30 15 O 1.5169 -1.1067 -1.4059 0
M  V30 16 O -0.2154 4.975 2.1356 0
M  V30 17 C -2.2798 4.6335 0.9653 0
M  V30 18 C 1.8518 -1.7578 -2.6286 0
M  V30 19 N -2.7307 5.0618 -0.1816 0
M  V30 20 C -3.2551 4.3313 2.0153 0
M  V30 21 O 1.9727 -3.1726 -2.4645 0
M  V30 22 O -1.7011 5.3313 -1.0952 0
M  V30 23 N -4.6292 4.4417 1.7859 0
M  V30 24 C -2.9413 3.9063 3.2951 0
M  V30 25 C 0.7971 -3.855 -2.4567 0
M  V30 26 C -2.2836 5.8724 -2.2766 0
M  V30 27 C -5.3089 4.1179 2.8552 0
M  V30 28 S -4.3678 3.6512 4.2089 0
M  V30 29 O -0.3044 -3.348 -2.6207 0
M  V30 30 C 1.0382 -5.3447 -2.1965 0
M  V30 31 N -6.6434 4.1412 2.9065 0
M  V30 32 C -0.3011 -6.0971 -2.2432 0
M  V30 33 C 1.9679 -5.9149 -3.2756 0
M  V30 34 C 1.6618 -5.5182 -0.805 0
M  V30 35 H 2.478 2.2765 2.1858 0
M  V30 36 H 0.5172 -0.8815 3.4971 0
M  V30 37 H 1.9931 0.0649 3.731 0
M  V30 38 H 1.873 3.9844 0.5658 0
M  V30 39 H -0.758 3.1437 -0.4 0
M  V30 40 H 2.769 -2.4728 2.846 0
M  V30 41 H 2.5645 -2.8116 1.1295 0
M  V30 42 H 1.1613 -2.8546 2.1938 0
M  V30 43 H 1.0883 -1.5097 -3.3756 0
M  V30 44 H 2.7983 -1.3762 -3.0308 0
M  V30 45 H -1.97 3.7394 3.7394 0
M  V30 46 H -2.8076 6.8054 -2.0473 0
M  V30 47 H -2.9739 5.1502 -2.7229 0
M  V30 48 H -1.4831 6.0833 -2.9903 0
M  V30 49 H -7.1592 3.8927 3.7384 0
M  V30 50 H -7.1668 4.4256 2.0886 0
M  V30 51 H -0.7859 -5.9841 -3.2198 0
M  V30 52 H -0.1622 -7.1685 -2.0603 0
M  V30 53 H -0.9976 -5.7169 -1.4868 0
M  V30 54 H 1.5602 -5.741 -4.278 0
M  V30 55 H 2.9591 -5.4488 -3.243 0
M  V30 56 H 2.1071 -6.9943 -3.1491 0
M  V30 57 H 1.0288 -5.069 -0.0309 0
M  V30 58 H 2.6436 -5.0358 -0.7398 0
M  V30 59 H 1.7964 -6.5775 -0.5598 0
M  V30 END ATOM
M  V30 BEGIN BOND
M  V30 1 1 1 2
M  V30 2 1 1 3
M  V30 3 1 2 4
M  V30 4 1 2 5
M  V30 5 1 3 6
M  V30 6 1 4 7
M  V30 7 1 4 8
M  V30 8 1 5 9
M  V30 9 1 6 10
M  V30 10 1 7 11
M  V30 11 2 8 12
M  V30 12 1 9 13
M  V30 13 2 11 14
M  V30 14 1 11 15
M  V30 15 2 13 16
M  V30 16 1 13 17
M  V30 17 1 15 18
M  V30 18 2 17 19
M  V30 19 1 17 20
M  V30 20 1 18 21
M  V30 21 1 19 22
M  V30 22 1 20 23
M  V30 23 2 20 24
M  V30 24 1 21 25
M  V30 25 1 22 26
M  V30 26 2 23 27
M  V30 27 1 24 28
M  V30 28 2 25 29
M  V30 29 1 25 30
M  V30 30 1 27 31
M  V30 31 1 30 32
M  V30 32 1 30 33
M  V30 33 1 30 34
M  V30 34 1 5 8
M  V30 35 2 6 7
M  V30 36 1 27 28
M  V30 37 1 2 35
M  V30 38 1 3 36
M  V30 39 1 3 37
M  V30 40 1 5 38
M  V30 41 1 9 39
M  V30 42 1 10 40
M  V30 43 1 10 41
M  V30 44 1 10 42
M  V30 45 1 18 43
M  V30 46 1 18 44
M  V30 47 1 24 45
M  V30 48 1 26 46
M  V30 49 1 26 47
M  V30 50 1 26 48
M  V30 51 1 31 49
M  V30 52 1 31 50
M  V30 53 1 32 51
M  V30 54 1 32 52
M  V30 55 1 32 53
M  V30 56 1 33 54
M  V30 57 1 33 55
M  V30 58 1 33 56
M  V30 59 1 34 57
M  V30 60 1 34 58
M  V30 61 1 34 59
M  V30 END BOND
M  V30 BEGIN COLLECTION
M  V30 MDLV30/STEABS ATOMS=(2 2 5)
M  V30 END COLLECTION
M  V30 END CTAB
M  END
>  <level_0>
2602

>  <index>
2602

>  <NO.>
2603

>  <Name>
cefetametpivoxil

>  <SMILES>
CO/N=C(\C(=O)N[C@@H]1C(=O)N2C(C(=O)OCOC(=O)C(C)(C)C)=C(C)CS[C@H]12)c1csc(N)n1

>  <logBB>


>  <Class>
-1

>  <MW>
511.12

>  <nHBAcc>
12

>  <nHBDon>
2

>  <SLogP>
0.84

>  <TopoPSA>
162.51

>  <MMFF94 Energy>
38.228

$$$$
COCc1c(C(=O)OC(C)C)ncc2[nH]c3ccc(OCc4ccccc4)cc3c12
Actelion Java MolfileCreator 2.0

  0  0  0  0  0  0              0 V3000
M  V30 BEGIN CTAB
M  V30 COUNTS 54 57 0 0 0
M  V30 BEGIN ATOM
M  V30 1 O 2.471 3.4288 1.9126 0
M  V30 2 C 3.2089 2.5385 1.519 0
M  V30 3 O 4.4097 2.2011 2.062 0
M  V30 4 C 2.9319 1.6402 0.3487 0
M  V30 5 C 4.8325 2.9746 3.1971 0
M  V30 6 N 4.0183 1.4133 -0.4446 0
M  V30 7 C 1.6417 1.1221 0.1224 0
M  V30 8 C 5.7998 2.1094 3.9956 0
M  V30 9 C 5.5175 4.2498 2.7193 0
M  V30 10 C 3.8883 0.6305 -1.5263 0
M  V30 11 C 1.526 0.2652 -1.0075 0
M  V30 12 C 0.5169 1.4404 1.0651 0
M  V30 13 C 2.6568 0.0615 -1.803 0
M  V30 14 C 0.4691 -0.5277 -1.5983 0
M  V30 15 O 0.7523 0.7469 2.2874 0
M  V30 16 N 2.3018 -0.7673 -2.8374 0
M  V30 17 C 0.9871 -1.1412 -2.739 0
M  V30 18 C -0.8812 -0.8001 -1.2804 0
M  V30 19 C -0.1611 1.1506 3.2984 0
M  V30 20 C 0.2344 -1.9784 -3.5707 0
M  V30 21 C -1.6598 -1.637 -2.0949 0
M  V30 22 C -1.1017 -2.2138 -3.2307 0
M  V30 23 O -2.9471 -1.8014 -1.6585 0
M  V30 24 C -3.7914 -2.6618 -2.4208 0
M  V30 25 C -5.136 -2.7437 -1.7387 0
M  V30 26 C -6.2984 -2.2988 -2.3837 0
M  V30 27 C -5.2406 -3.2792 -0.4462 0
M  V30 28 C -7.5389 -2.3901 -1.7491 0
M  V30 29 C -6.4814 -3.3695 0.1863 0
M  V30 30 C -7.6301 -2.9259 -0.4657 0
M  V30 31 H 3.9758 3.2179 3.8375 0
M  V30 32 H 6.1666 2.636 4.8819 0
M  V30 33 H 5.3065 1.1859 4.3179 0
M  V30 34 H 6.6578 1.81 3.3836 0
M  V30 35 H 5.8945 4.8368 3.5625 0
M  V30 36 H 4.8237 4.875 2.148 0
M  V30 37 H 6.3535 4.0178 2.0503 0
M  V30 38 H 4.7727 0.4766 -2.1326 0
M  V30 39 H 0.4326 2.5206 1.2234 0
M  V30 40 H -0.4464 1.1298 0.6621 0
M  V30 41 H 2.9289 -1.0763 -3.5661 0
M  V30 42 H -1.3445 -0.3808 -0.3942 0
M  V30 43 H 0.049 0.5733 4.2026 0
M  V30 44 H -1.1909 0.9507 2.9868 0
M  V30 45 H -0.0349 2.2134 3.5264 0
M  V30 46 H 0.6679 -2.4386 -4.4534 0
M  V30 47 H -1.6764 -2.864 -3.8823 0
M  V30 48 H -3.3707 -3.6737 -2.4755 0
M  V30 49 H -3.911 -2.263 -3.4355 0
M  V30 50 H -6.2468 -1.8733 -3.3832 0
M  V30 51 H -4.3488 -3.6213 0.075 0
M  V30 52 H -8.4348 -2.0402 -2.2555 0
M  V30 53 H -6.5501 -3.7826 1.1892 0
M  V30 54 H -8.5959 -2.9941 0.0279 0
M  V30 END ATOM
M  V30 BEGIN BOND
M  V30 1 2 1 2
M  V30 2 1 2 3
M  V30 3 1 2 4
M  V30 4 1 3 5
M  V30 5 2 4 6
M  V30 6 1 4 7
M  V30 7 1 5 8
M  V30 8 1 5 9
M  V30 9 1 6 10
M  V30 10 2 7 11
M  V30 11 1 7 12
M  V30 12 2 10 13
M  V30 13 1 11 14
M  V30 14 1 12 15
M  V30 15 1 13 16
M  V30 16 2 14 17
M  V30 17 1 14 18
M  V30 18 1 15 19
M  V30 19 1 17 20
M  V30 20 2 18 21
M  V30 21 2 20 22
M  V30 22 1 21 23
M  V30 23 1 23 24
M  V30 24 1 24 25
M  V30 25 2 25 26
M  V30 26 1 25 27
M  V30 27 1 26 28
M  V30 28 2 27 29
M  V30 29 2 28 30
M  V30 30 1 11 13
M  V30 31 1 16 17
M  V30 32 1 21 22
M  V30 33 1 29 30
M  V30 34 1 5 31
M  V30 35 1 8 32
M  V30 36 1 8 33
M  V30 37 1 8 34
M  V30 38 1 9 35
M  V30 39 1 9 36
M  V30 40 1 9 37
M  V30 41 1 10 38
M  V30 42 1 12 39
M  V30 43 1 12 40
M  V30 44 1 16 41
M  V30 45 1 18 42
M  V30 46 1 19 43
M  V30 47 1 19 44
M  V30 48 1 19 45
M  V30 49 1 20 46
M  V30 50 1 22 47
M  V30 51 1 24 48
M  V30 52 1 24 49
M  V30 53 1 26 50
M  V30 54 1 27 51
M  V30 55 1 28 52
M  V30 56 1 29 53
M  V30 57 1 30 54
M  V30 END BOND
M  V30 END CTAB
M  END
>  <level_0>
2603

>  <index>
2603

>  <NO.>
2604

>  <Name>
abecarnil

>  <SMILES>
COCc1c(C(=O)OC(C)C)ncc2[nH]c3ccc(OCc4ccccc4)cc3c12

>  <logBB>


>  <Class>
1

>  <MW>
404.17

>  <nHBAcc>
5

>  <nHBDon>
1

>  <SLogP>
5.01

>  <TopoPSA>
73.44

>  <MMFF94 Energy>
92.477

$$$$
COc1cc2c(cc1OC)CN(CCc1ccc(NC(=O)c3cccc4c(=O)c5cccc(OC)c5[nH]c34)cc1)CC2
Actelion Java MolfileCreator 2.0

  0  0  0  0  0  0              0 V3000
M  V30 BEGIN CTAB
M  V30 COUNTS 75 80 0 0 0
M  V30 BEGIN ATOM
M  V30 1 O -8.6732 1.6018 5.6954 0
M  V30 2 C -7.527 1.2261 5.4682 0
M  V30 3 C -6.6416 0.7941 6.5782 0
M  V30 4 C -7.0052 1.2025 4.0756 0
M  V30 5 C -5.3407 0.3679 6.2747 0
M  V30 6 C -7.1025 0.8066 7.8969 0
M  V30 7 C -5.685 0.7747 3.848 0
M  V30 8 C -7.8305 1.6049 3.0183 0
M  V30 9 N -4.8982 0.3884 4.9423 0
M  V30 10 C -4.4867 -0.0394 7.3164 0
M  V30 11 C -6.2551 0.3957 8.9237 0
M  V30 12 C -5.1909 0.8043 2.5299 0
M  V30 13 C -7.3444 1.5874 1.7133 0
M  V30 14 O -3.2296 -0.4285 6.9251 0
M  V30 15 C -4.9521 -0.025 8.6362 0
M  V30 16 C -3.7788 0.4075 2.2514 0
M  V30 17 C -6.03 1.1882 1.4674 0
M  V30 18 C -2.3389 -0.8699 7.9409 0
M  V30 19 O -3.2835 -0.5027 2.9065 0
M  V30 20 N -3.1407 1.1678 1.2863 0
M  V30 21 C -1.8305 0.9846 0.7983 0
M  V30 22 C -1.2649 2.0308 0.0605 0
M  V30 23 C -1.0948 -0.1861 0.9823 0
M  V30 24 C 0.0231 1.9141 -0.4706 0
M  V30 25 C 0.1947 -0.3045 0.4524 0
M  V30 26 C 0.7669 0.7461 -0.2737 0
M  V30 27 C 2.1525 0.6083 -0.8603 0
M  V30 28 C 2.1184 -0.0909 -2.2301 0
M  V30 29 N 3.4352 -0.1257 -2.8945 0
M  V30 30 C 3.2627 -0.4953 -4.3153 0
M  V30 31 C 4.3566 -1.0797 -2.2554 0
M  V30 32 C 4.5666 -0.7019 -5.0582 0
M  V30 33 C 5.7637 -0.9594 -2.8583 0
M  V30 34 C 5.7551 -0.9711 -4.3655 0
M  V30 35 C 4.5765 -0.6921 -6.4626 0
M  V30 36 C 6.9449 -1.1903 -5.0756 0
M  V30 37 C 5.76 -0.9199 -7.175 0
M  V30 38 C 6.9561 -1.1701 -6.4747 0
M  V30 39 O 5.8516 -0.9245 -8.5457 0
M  V30 40 O 8.0734 -1.3814 -7.2454 0
M  V30 41 C 4.6825 -0.6079 -9.2865 0
M  V30 42 C 9.304 -1.6064 -6.574 0
M  V30 43 H -8.1149 1.1348 8.122 0
M  V30 44 H -8.853 1.9231 3.2138 0
M  V30 45 H -3.9895 -0.0431 4.7557 0
M  V30 46 H -6.6088 0.4038 9.9523 0
M  V30 47 H -7.992 1.881 0.89 0
M  V30 48 H -4.3251 -0.3338 9.4664 0
M  V30 49 H -5.6781 1.1561 0.4387 0
M  V30 50 H -2.1248 -0.067 8.6541 0
M  V30 51 H -1.3958 -1.1481 7.4606 0
M  V30 52 H -2.7283 -1.7583 8.4491 0
M  V30 53 H -3.6219 1.992 0.9502 0
M  V30 54 H -1.8121 2.9549 -0.1058 0
M  V30 55 H -1.5016 -1.0313 1.5297 0
M  V30 56 H 0.4423 2.743 -1.0374 0
M  V30 57 H 0.7467 -1.2279 0.6145 0
M  V30 58 H 2.7768 0.0575 -0.1474 0
M  V30 59 H 2.6071 1.6028 -0.9571 0
M  V30 60 H 1.7052 -1.104 -2.1321 0
M  V30 61 H 1.4178 0.468 -2.8659 0
M  V30 62 H 2.6767 -1.4201 -4.4059 0
M  V30 63 H 2.7082 0.3087 -4.8156 0
M  V30 64 H 4.4476 -0.886 -1.1814 0
M  V30 65 H 3.9859 -2.1081 -2.3657 0
M  V30 66 H 6.2241 -0.0199 -2.5267 0
M  V30 67 H 6.3792 -1.7859 -2.4835 0
M  V30 68 H 3.6405 -0.5042 -6.9785 0
M  V30 69 H 7.8517 -1.3738 -4.5087 0
M  V30 70 H 3.9 -1.357 -9.1272 0
M  V30 71 H 4.945 -0.6237 -10.3487 0
M  V30 72 H 4.3225 0.3987 -9.0488 0
M  V30 73 H 9.585 -0.7427 -5.9621 0
M  V30 74 H 10.0799 -1.7405 -7.334 0
M  V30 75 H 9.2654 -2.5219 -5.9746 0
M  V30 END ATOM
M  V30 BEGIN BOND
M  V30 1 2 1 2
M  V30 2 1 2 3
M  V30 3 1 2 4
M  V30 4 2 3 5
M  V30 5 1 3 6
M  V30 6 2 4 7
M  V30 7 1 4 8
M  V30 8 1 5 9
M  V30 9 1 5 10
M  V30 10 2 6 11
M  V30 11 1 7 12
M  V30 12 2 8 13
M  V30 13 1 10 14
M  V30 14 2 10 15
M  V30 15 1 12 16
M  V30 16 2 12 17
M  V30 17 1 14 18
M  V30 18 2 16 19
M  V30 19 1 16 20
M  V30 20 1 20 21
M  V30 21 2 21 22
M  V30 22 1 21 23
M  V30 23 1 22 24
M  V30 24 2 23 25
M  V30 25 2 24 26
M  V30 26 1 26 27
M  V30 27 1 27 28
M  V30 28 1 28 29
M  V30 29 1 29 30
M  V30 30 1 29 31
M  V30 31 1 30 32
M  V30 32 1 31 33
M  V30 33 2 32 34
M  V30 34 1 32 35
M  V30 35 1 34 36
M  V30 36 2 35 37
M  V30 37 2 36 38
M  V30 38 1 37 39
M  V30 39 1 38 40
M  V30 40 1 39 41
M  V30 41 1 40 42
M  V30 42 1 7 9
M  V30 43 1 11 15
M  V30 44 1 13 17
M  V30 45 1 25 26
M  V30 46 1 33 34
M  V30 47 1 37 38
M  V30 48 1 6 43
M  V30 49 1 8 44
M  V30 50 1 9 45
M  V30 51 1 11 46
M  V30 52 1 13 47
M  V30 53 1 15 48
M  V30 54 1 17 49
M  V30 55 1 18 50
M  V30 56 1 18 51
M  V30 57 1 18 52
M  V30 58 1 20 53
M  V30 59 1 22 54
M  V30 60 1 23 55
M  V30 61 1 24 56
M  V30 62 1 25 57
M  V30 63 1 27 58
M  V30 64 1 27 59
M  V30 65 1 28 60
M  V30 66 1 28 61
M  V30 67 1 30 62
M  V30 68 1 30 63
M  V30 69 1 31 64
M  V30 70 1 31 65
M  V30 71 1 33 66
M  V30 72 1 33 67
M  V30 73 1 35 68
M  V30 74 1 36 69
M  V30 75 1 41 70
M  V30 76 1 41 71
M  V30 77 1 41 72
M  V30 78 1 42 73
M  V30 79 1 42 74
M  V30 80 1 42 75
M  V30 END BOND
M  V30 END CTAB
M  END
>  <level_0>
2604

>  <index>
2604

>  <NO.>
2605

>  <Name>
elacridar

>  <SMILES>
COc1cc2c(cc1OC)CN(CCc1ccc(NC(=O)c3cccc4c(=O)c5cccc(OC)c5[nH]c34)cc1)CC2

>  <logBB>


>  <Class>
-1

>  <MW>
563.24

>  <nHBAcc>
6

>  <nHBDon>
2

>  <SLogP>
5.56

>  <TopoPSA>
92.89

>  <MMFF94 Energy>
172.73

$$$$
C[C@H]1O[C@H](O[C@@H]2[C@@H](CO)O[C@H](O[C@@H]3[C@@H](CO)OC(O)[C@H](O)[C@H]3O)[C@H](O)[C@H]2O)[C@H](O)[C@@H](O)[C@@H]1N[C@H]1C=C(CO)[C@@H](O)[C@H](O)[C@H]1O
Actelion Java MolfileCreator 2.0

  0  0  0  0  0  0              0 V3000
M  V30 BEGIN CTAB
M  V30 COUNTS 87 90 0 0 0
M  V30 BEGIN ATOM
M  V30 1 O -2.9584 2.0781 2.0781 0
M  V30 2 C -4.0783 1.4413 1.4641 0 CFG=2
M  V30 3 C -1.6965 1.6644 1.5181 0 CFG=1
M  V30 4 O -4.0012 0.0243 1.6523 0
M  V30 5 C -4.1216 1.7703 -0.0353 0 CFG=2
M  V30 6 C -1.6128 1.9568 0.004 0 CFG=2
M  V30 7 C -0.6054 2.4115 2.2967 0
M  V30 8 C -4.9745 -0.4881 2.573 0 CFG=1
M  V30 9 O -5.2432 1.1388 -0.6828 0
M  V30 10 C -2.823 1.322 -0.7047 0 CFG=2
M  V30 11 O -0.407 1.3744 -0.5108 0
M  V30 12 O -0.8369 3.8206 2.2461 0
M  V30 13 C -6.226 -0.9342 1.7939 0 CFG=2
M  V30 14 C -4.373 -1.7109 3.2994 0 CFG=2
M  V30 15 O -2.8991 1.7067 -2.0888 0
M  V30 16 C 0.1744 2.1044 -1.5928 0 CFG=1
M  V30 17 O -6.9355 0.1796 1.2298 0
M  V30 18 C -7.189 -1.6801 2.7155 0 CFG=1
M  V30 19 O -5.3514 -2.353 4.1351 0
M  V30 20 C -3.2082 -1.3087 4.2128 0
M  V30 21 O 1.3853 2.7365 -1.189 0
M  V30 22 C 0.4671 1.1679 -2.7664 0 CFG=2
M  V30 23 O -8.3206 -2.1555 1.9728 0
M  V30 24 C -6.4555 -2.8502 3.3876 0
M  V30 25 O -3.6783 -0.4903 5.2844 0
M  V30 26 C 2.3654 1.8145 -0.6898 0 CFG=1
M  V30 27 O -0.7302 0.5175 -3.2371 0
M  V30 28 C 1.5116 0.1139 -2.379 0 CFG=2
M  V30 29 O -7.3419 -3.5298 4.2687 0
M  V30 30 C 2.7873 0.7611 -1.7656 0 CFG=2
M  V30 31 C 3.5367 2.6773 -0.2167 0
M  V30 32 O 1.7854 -0.6246 -3.5905 0
M  V30 33 N 3.714 -0.21 -1.1573 0
M  V30 34 C 4.2606 -1.3027 -1.9717 0 CFG=1
M  V30 35 C 5.1926 -0.7385 -3.0204 0
M  V30 36 C 4.9934 -2.3636 -1.089 0 CFG=2
M  V30 37 C 6.5363 -0.8705 -3.0135 0
M  V30 38 O 4.2364 -2.7071 0.0832 0
M  V30 39 C 6.3816 -1.873 -0.6726 0 CFG=2
M  V30 40 C 7.25 -1.6274 -1.9181 0 CFG=2
M  V30 41 C 7.38 -0.2892 -4.1114 0
M  V30 42 O 6.996 -2.8687 0.1705 0
M  V30 43 O 8.4157 -0.9149 -1.497 0
M  V30 44 O 8.3468 -1.2516 -4.5054 0
M  V30 45 H -4.9825 1.8508 1.9285 0
M  V30 46 H -1.5475 0.5924 1.6993 0
M  V30 47 H -4.2449 2.852 -0.1723 0
M  V30 48 H -1.62 3.0427 -0.1587 0
M  V30 49 H -0.6268 2.1208 3.3525 0
M  V30 50 H 0.3937 2.2067 1.904 0
M  V30 51 H -5.2536 0.2756 3.3109 0
M  V30 52 H -5.0561 1.252 -1.6397 0
M  V30 53 H -2.7469 0.2274 -0.7038 0
M  V30 54 H -1.7387 3.9435 2.6003 0
M  V30 55 H -5.9465 -1.5729 0.9461 0
M  V30 56 H -3.9893 -2.4342 2.5678 0
M  V30 57 H -2.1933 1.2015 -2.5554 0
M  V30 58 H -0.5034 2.8901 -1.9452 0
M  V30 59 H -6.4097 0.4836 0.4535 0
M  V30 60 H -7.5866 -0.9967 3.4767 0
M  V30 61 H -2.7551 -2.198 4.6635 0
M  V30 62 H -2.431 -0.7633 3.6709 0
M  V30 63 H 0.8533 1.7544 -3.6098 0
M  V30 64 H -8.6101 -1.3847 1.4419 0
M  V30 65 H -6.1157 -3.5861 2.6495 0
M  V30 66 H -4.396 -1.0053 5.7045 0
M  V30 67 H 1.9519 1.3044 0.1896 0
M  V30 68 H -0.41 -0.2739 -3.7205 0
M  V30 69 H 1.0716 -0.6048 -1.6768 0
M  V30 70 H -8.2389 -3.347 3.9311 0
M  V30 71 H 3.3103 1.2958 -2.5689 0
M  V30 72 H 3.1794 3.4649 0.4567 0
M  V30 73 H 4.0146 3.1826 -1.0631 0
M  V30 74 H 4.2927 2.0972 0.3185 0
M  V30 75 H 2.3528 -0.0709 -4.1533 0
M  V30 76 H 4.4635 0.244 -0.643 0
M  V30 77 H 3.4437 -1.848 -2.4513 0
M  V30 78 H 4.7182 -0.2025 -3.8374 0
M  V30 79 H 5.0953 -3.2973 -1.6582 0
M  V30 80 H 4.8739 -3.1661 0.6656 0
M  V30 81 H 6.309 -0.9712 -0.0526 0
M  V30 82 H 7.5937 -2.5947 -2.3068 0
M  V30 83 H 6.7802 -0.0217 -4.9877 0
M  V30 84 H 7.9027 0.6057 -3.7592 0
M  V30 85 H 7.9027 -2.5389 0.328 0
M  V30 86 H 9.0474 -1.0056 -2.2364 0
M  V30 87 H 8.7493 -0.9213 -5.3277 0
M  V30 END ATOM
M  V30 BEGIN BOND
M  V30 1 1 1 2
M  V30 2 1 1 3
M  V30 3 1 2 4
M  V30 4 1 2 5
M  V30 5 1 3 6
M  V30 6 1 3 7
M  V30 7 1 4 8
M  V30 8 1 5 9
M  V30 9 1 5 10
M  V30 10 1 6 11
M  V30 11 1 7 12
M  V30 12 1 8 13
M  V30 13 1 8 14
M  V30 14 1 10 15
M  V30 15 1 11 16
M  V30 16 1 13 17
M  V30 17 1 13 18
M  V30 18 1 14 19
M  V30 19 1 14 20
M  V30 20 1 16 21
M  V30 21 1 16 22
M  V30 22 1 18 23
M  V30 23 1 18 24
M  V30 24 1 20 25
M  V30 25 1 21 26
M  V30 26 1 22 27
M  V30 27 1 22 28
M  V30 28 1 24 29
M  V30 29 1 26 30
M  V30 30 1 26 31
M  V30 31 1 28 32
M  V30 32 1 30 33
M  V30 33 1 33 34
M  V30 34 1 34 35
M  V30 35 1 34 36
M  V30 36 2 35 37
M  V30 37 1 36 38
M  V30 38 1 36 39
M  V30 39 1 37 40
M  V30 40 1 37 41
M  V30 41 1 39 42
M  V30 42 1 40 43
M  V30 43 1 41 44
M  V30 44 1 6 10
M  V30 45 1 19 24
M  V30 46 1 28 30
M  V30 47 1 39 40
M  V30 48 1 2 45
M  V30 49 1 3 46
M  V30 50 1 5 47
M  V30 51 1 6 48
M  V30 52 1 7 49
M  V30 53 1 7 50
M  V30 54 1 8 51
M  V30 55 1 9 52
M  V30 56 1 10 53
M  V30 57 1 12 54
M  V30 58 1 13 55
M  V30 59 1 14 56
M  V30 60 1 15 57
M  V30 61 1 16 58
M  V30 62 1 17 59
M  V30 63 1 18 60
M  V30 64 1 20 61
M  V30 65 1 20 62
M  V30 66 1 22 63
M  V30 67 1 23 64
M  V30 68 1 24 65
M  V30 69 1 25 66
M  V30 70 1 26 67
M  V30 71 1 27 68
M  V30 72 1 28 69
M  V30 73 1 29 70
M  V30 74 1 30 71
M  V30 75 1 31 72
M  V30 76 1 31 73
M  V30 77 1 31 74
M  V30 78 1 32 75
M  V30 79 1 33 76
M  V30 80 1 34 77
M  V30 81 1 35 78
M  V30 82 1 36 79
M  V30 83 1 38 80
M  V30 84 1 39 81
M  V30 85 1 40 82
M  V30 86 1 41 83
M  V30 87 1 41 84
M  V30 88 1 42 85
M  V30 89 1 43 86
M  V30 90 1 44 87
M  V30 END BOND
M  V30 BEGIN COLLECTION
M  V30 MDLV30/STEABS ATOMS=(18 2 3 5 6 8 10 13 14 16 18 22 26 28 30 34 36 39 40)
M  V30 END COLLECTION
M  V30 END CTAB
M  END
>  <level_0>
2606

>  <index>
2606

>  <NO.>
2607

>  <Name>
acarbose

>  <SMILES>
C[C@H]1O[C@H](O[C@@H]2[C@@H](CO)O[C@H](O[C@@H]3[C@@H](CO)OC(O)[C@H](O)[C@H]3O)[C@H](O)[C@H]2O)[C@H](O)[C@@H](O)[C@@H]1N[C@H]1C=C(CO)[C@@H](O)[C@H](O)[C@H]1O

>  <logBB>


>  <Class>
-1

>  <MW>
645.25

>  <nHBAcc>
19

>  <nHBDon>
14

>  <SLogP>
-8.56

>  <TopoPSA>
321.17

>  <MMFF94 Energy>
302.23

$$$$
N=C(N)N1CCC[C@@H](CNC(=O)C[C@H](NS(=O)(=O)c2ccc3ccccc3c2)C(=O)N(CC(=O)O)C2CC2)C1
Actelion Java MolfileCreator 2.0

  0  0  0  0  0  0              0 V3000
M  V30 BEGIN CTAB
M  V30 COUNTS 73 76 0 0 0
M  V30 BEGIN ATOM
M  V30 1 S 0.0799 1.8401 -2.9615 0
M  V30 2 O -0.0218 2.7249 -4.0964 0
M  V30 3 O 0.7467 2.2304 -1.7348 0
M  V30 4 N -1.4593 1.3965 -2.5258 0
M  V30 5 C 0.7824 0.3112 -3.5185 0
M  V30 6 C -1.6921 0.3899 -1.4608 0 CFG=2
M  V30 7 C 1.8994 -0.22 -2.8676 0
M  V30 8 C 0.1706 -0.3725 -4.5696 0
M  V30 9 C -2.8429 -0.5015 -1.9703 0
M  V30 10 C -2.1057 1.1109 -0.1811 0
M  V30 11 C 2.4039 -1.4705 -3.2517 0
M  V30 12 C 0.6696 -1.6153 -4.9583 0
M  V30 13 O -3.6291 -0.0354 -2.8069 0
M  V30 14 N -2.97 -1.7988 -1.4828 0
M  V30 15 C -1.1634 0.7423 0.9365 0
M  V30 16 C 1.777 -2.1803 -4.3046 0
M  V30 17 C 3.5061 -2.0431 -2.5976 0
M  V30 18 C -4.0827 -2.6062 -1.9414 0
M  V30 19 C -1.9353 -2.5088 -0.7147 0
M  V30 20 O -1.4778 -0.0608 1.8089 0
M  V30 21 N 0.0696 1.3434 0.8637 0
M  V30 22 C 2.2677 -3.444 -4.6661 0
M  V30 23 C 3.98 -3.3016 -2.9701 0
M  V30 24 C -4.9503 -3.3861 -0.9847 0
M  V30 25 C -5.5091 -2.1881 -1.6854 0
M  V30 26 C -0.9152 -3.1479 -1.6457 0
M  V30 27 C 1.0971 1.1223 1.8599 0
M  V30 28 C 3.361 -4.0015 -4.0014 0
M  V30 29 O -1.1307 -3.6801 -2.7223 0
M  V30 30 O 0.3374 -3.0908 -1.1482 0
M  V30 31 C 0.9202 2.0201 3.0912 0 CFG=1
M  V30 32 C 1.933 1.6218 4.1733 0
M  V30 33 C 1.0907 3.5097 2.7359 0
M  V30 34 N 1.7887 2.498 5.3373 0
M  V30 35 C 1.0436 4.3882 3.9876 0
M  V30 36 C 1.2533 2.0679 6.5147 0
M  V30 37 C 2.0393 3.911 5.045 0
M  V30 38 N 0.4147 1.1043 6.6687 0
M  V30 39 N 1.6679 2.7089 7.6169 0
M  V30 40 H -2.2107 1.5183 -3.2148 0
M  V30 41 H -0.7932 -0.2171 -1.3362 0
M  V30 42 H 2.3673 0.3283 -2.0523 0
M  V30 43 H -0.6949 0.0449 -5.08 0
M  V30 44 H -3.1204 0.8418 0.136 0
M  V30 45 H -2.0867 2.2023 -0.2932 0
M  V30 46 H 0.1765 -2.1505 -5.7684 0
M  V30 47 H 4.0059 -1.5128 -1.7891 0
M  V30 48 H -3.8861 -3.0622 -2.9107 0
M  V30 49 H -2.3845 -3.2932 -0.0989 0
M  V30 50 H -1.4268 -1.8124 -0.0502 0
M  V30 51 H 0.289 1.9585 0.0757 0
M  V30 52 H 1.7987 -4.0068 -5.4714 0
M  V30 53 H 4.8373 -3.7329 -2.4582 0
M  V30 54 H -4.7823 -3.2979 0.082 0
M  V30 55 H -5.2946 -4.3644 -1.3 0
M  V30 56 H -6.2258 -2.3438 -2.4835 0
M  V30 57 H -5.6879 -1.2916 -1.1031 0
M  V30 58 H 1.0689 0.0663 2.1531 0
M  V30 59 H 2.062 1.3074 1.3749 0
M  V30 60 H 3.7332 -4.98 -4.2961 0
M  V30 61 H 0.9002 -3.5024 -1.8423 0
M  V30 62 H -0.0927 1.8827 3.4941 0
M  V30 63 H 1.8116 0.5675 4.4487 0
M  V30 64 H 2.9563 1.7137 3.7862 0
M  V30 65 H 2.0498 3.6638 2.2252 0
M  V30 66 H 0.3045 3.8299 2.0425 0
M  V30 67 H 0.0286 4.3651 4.4043 0
M  V30 68 H 1.2585 5.4282 3.7177 0
M  V30 69 H 3.0664 4.031 4.6796 0
M  V30 70 H 1.9426 4.547 5.9315 0
M  V30 71 H 0.1542 0.7358 5.7541 0
M  V30 72 H 2.5362 3.2156 7.6283 0
M  V30 73 H 1.2918 2.3721 8.4923 0
M  V30 END ATOM
M  V30 BEGIN BOND
M  V30 1 2 1 2
M  V30 2 2 1 3
M  V30 3 1 1 4
M  V30 4 1 1 5
M  V30 5 1 4 6
M  V30 6 2 5 7
M  V30 7 1 5 8
M  V30 8 1 6 9
M  V30 9 1 6 10
M  V30 10 1 7 11
M  V30 11 2 8 12
M  V30 12 2 9 13
M  V30 13 1 9 14
M  V30 14 1 10 15
M  V30 15 1 11 16
M  V30 16 2 11 17
M  V30 17 1 14 18
M  V30 18 1 14 19
M  V30 19 2 15 20
M  V30 20 1 15 21
M  V30 21 2 16 22
M  V30 22 1 17 23
M  V30 23 1 18 24
M  V30 24 1 18 25
M  V30 25 1 19 26
M  V30 26 1 21 27
M  V30 27 1 22 28
M  V30 28 2 26 29
M  V30 29 1 26 30
M  V30 30 1 27 31
M  V30 31 1 31 32
M  V30 32 1 31 33
M  V30 33 1 32 34
M  V30 34 1 33 35
M  V30 35 1 34 36
M  V30 36 1 34 37
M  V30 37 2 36 38
M  V30 38 1 36 39
M  V30 39 1 12 16
M  V30 40 2 23 28
M  V30 41 1 24 25
M  V30 42 1 35 37
M  V30 43 1 4 40
M  V30 44 1 6 41
M  V30 45 1 7 42
M  V30 46 1 8 43
M  V30 47 1 10 44
M  V30 48 1 10 45
M  V30 49 1 12 46
M  V30 50 1 17 47
M  V30 51 1 18 48
M  V30 52 1 19 49
M  V30 53 1 19 50
M  V30 54 1 21 51
M  V30 55 1 22 52
M  V30 56 1 23 53
M  V30 57 1 24 54
M  V30 58 1 24 55
M  V30 59 1 25 56
M  V30 60 1 25 57
M  V30 61 1 27 58
M  V30 62 1 27 59
M  V30 63 1 28 60
M  V30 64 1 30 61
M  V30 65 1 31 62
M  V30 66 1 32 63
M  V30 67 1 32 64
M  V30 68 1 33 65
M  V30 69 1 33 66
M  V30 70 1 35 67
M  V30 71 1 35 68
M  V30 72 1 37 69
M  V30 73 1 37 70
M  V30 74 1 38 71
M  V30 75 1 39 72
M  V30 76 1 39 73
M  V30 END BOND
M  V30 BEGIN COLLECTION
M  V30 MDLV30/STEABS ATOMS=(2 6 31)
M  V30 END COLLECTION
M  V30 END CTAB
M  END
>  <level_0>
2611

>  <index>
2611

>  <NO.>
2612

>  <Name>
napsagatran

>  <SMILES>
N=C(N)N1CCC[C@@H](CNC(=O)C[C@H](NS(=O)(=O)c2ccc3ccccc3c2)C(=O)N(CC(=O)O)C2CC2)C1

>  <logBB>


>  <Class>
-1

>  <MW>
558.23

>  <nHBAcc>
6

>  <nHBDon>
5

>  <SLogP>
0.67

>  <TopoPSA>
185.99

>  <MMFF94 Energy>
-169.81

$$$$
OCCN1C[C@H](O)[C@@H](O)[C@H](O)[C@H]1CO
Actelion Java MolfileCreator 2.0

  0  0  0  0  0  0              0 V3000
M  V30 BEGIN CTAB
M  V30 COUNTS 31 31 0 0 0
M  V30 BEGIN ATOM
M  V30 1 O 0.3919 1.0193 3.5319 0
M  V30 2 C 0.3687 0.1563 2.3811 0 CFG=1
M  V30 3 C -0.7903 0.5354 1.4583 0 CFG=2
M  V30 4 C 1.6953 0.2755 1.6392 0 CFG=1
M  V30 5 O -2.005 0.3923 2.213 0
M  V30 6 C -0.7806 -0.3606 0.1884 0 CFG=2
M  V30 7 O 2.7517 -0.1808 2.4917 0
M  V30 8 C 1.6556 -0.5584 0.3544 0
M  V30 9 N 0.5219 -0.2066 -0.5279 0
M  V30 10 C -2.042 -0.0589 -0.6649 0
M  V30 11 C 0.6007 -0.9898 -1.7753 0
M  V30 12 O -2.1717 1.3317 -0.9446 0
M  V30 13 C 0.4573 -0.0922 -3.0109 0
M  V30 14 O 0.4429 -0.8999 -4.1855 0
M  V30 15 H -0.534 1.031 3.8473 0
M  V30 16 H 0.2356 -0.8582 2.7772 0
M  V30 17 H -0.7054 1.5983 1.196 0
M  V30 18 H 1.909 1.3257 1.405 0
M  V30 19 H -2.6615 0.9599 1.7656 0
M  V30 20 H -0.8796 -1.41 0.5032 0
M  V30 21 H 2.5978 0.2762 3.3431 0
M  V30 22 H 2.604 -0.3946 -0.1742 0
M  V30 23 H 1.6317 -1.6272 0.6094 0
M  V30 24 H -2.0423 -0.6128 -1.6078 0
M  V30 25 H -2.9415 -0.3707 -0.1223 0
M  V30 26 H -0.1283 -1.8097 -1.7995 0
M  V30 27 H 1.5699 -1.4997 -1.8697 0
M  V30 28 H -2.8587 1.4217 -1.628 0
M  V30 29 H -0.4697 0.4863 -2.9908 0
M  V30 30 H 1.3013 0.6026 -3.078 0
M  V30 31 H 0.4445 -0.289 -4.9427 0
M  V30 END ATOM
M  V30 BEGIN BOND
M  V30 1 1 1 2
M  V30 2 1 2 3
M  V30 3 1 2 4
M  V30 4 1 3 5
M  V30 5 1 3 6
M  V30 6 1 4 7
M  V30 7 1 4 8
M  V30 8 1 6 9
M  V30 9 1 6 10
M  V30 10 1 9 11
M  V30 11 1 10 12
M  V30 12 1 11 13
M  V30 13 1 13 14
M  V30 14 1 8 9
M  V30 15 1 1 15
M  V30 16 1 2 16
M  V30 17 1 3 17
M  V30 18 1 4 18
M  V30 19 1 5 19
M  V30 20 1 6 20
M  V30 21 1 7 21
M  V30 22 1 8 22
M  V30 23 1 8 23
M  V30 24 1 10 24
M  V30 25 1 10 25
M  V30 26 1 11 26
M  V30 27 1 11 27
M  V30 28 1 12 28
M  V30 29 1 13 29
M  V30 30 1 13 30
M  V30 31 1 14 31
M  V30 END BOND
M  V30 BEGIN COLLECTION
M  V30 MDLV30/STEABS ATOMS=(4 2 3 4 6)
M  V30 END COLLECTION
M  V30 END CTAB
M  END
>  <level_0>
2618

>  <index>
2618

>  <NO.>
2619

>  <Name>
miglitol

>  <SMILES>
OCCN1C[C@H](O)[C@@H](O)[C@H](O)[C@H]1CO

>  <logBB>


>  <Class>
-1

>  <MW>
207.11

>  <nHBAcc>
6

>  <nHBDon>
5

>  <SLogP>
-3.26

>  <TopoPSA>
104.39

>  <MMFF94 Energy>
123.34

$$$$
C=C1c2c(Cl)ccc(O)c2C(=O)C2=C(O)C3(O)C(=O)C(C(N)=O)=C(O)[C@@H](N(C)C)[C@H]3[C@@H](O)[C@@H]12
Actelion Java MolfileCreator 2.0

  0  0  0  0  0  0              0 V3000
M  V30 BEGIN CTAB
M  V30 COUNTS 54 57 0 0 0
M  V30 BEGIN ATOM
M  V30 1 Cl -2.1981 4.563 -0.5695 0
M  V30 2 C -1.873 3.2709 -1.6768 0
M  V30 3 C -2.0944 1.9174 -1.3566 0
M  V30 4 C -1.3117 3.6338 -2.907 0
M  V30 5 C -1.6629 0.9386 -2.2787 0
M  V30 6 C -2.7591 1.446 -0.1185 0
M  V30 7 C -0.9372 2.6586 -3.8283 0
M  V30 8 C -1.739 -0.4951 -1.8864 0
M  V30 9 C -1.0961 1.3132 -3.507 0
M  V30 10 C -3.9386 1.9568 0.2815 0
M  V30 11 C -2.1678 0.216 0.5443 0 CFG=1
M  V30 12 O -1.8495 -1.4317 -2.6687 0
M  V30 13 C -1.5588 -0.7484 -0.438 0
M  V30 14 O -0.6447 0.3696 -4.3844 0
M  V30 15 C -1.3053 0.4704 1.8257 0 CFG=2
M  V30 16 C -0.7891 -1.78 -0.0382 0
M  V30 17 O -0.9453 1.8335 2.0531 0
M  V30 18 C -0.0584 -0.4413 1.9541 0 CFG=1
M  V30 19 O -0.291 -2.7399 -0.8991 0
M  V30 20 C -0.3444 -1.8423 1.4039 0
M  V30 21 C 1.2703 0.1473 1.3897 0 CFG=2
M  V30 22 O -1.4461 -2.4079 2.14 0
M  V30 23 C 0.8638 -2.7688 1.6423 0
M  V30 24 N 1.1658 0.711 0.0129 0
M  V30 25 C 2.4095 -0.8525 1.5827 0
M  V30 26 O 0.6875 -3.9816 1.824 0
M  V30 27 C 2.2427 -2.191 1.6948 0
M  V30 28 C 1.5677 2.1264 0.007 0
M  V30 29 C 1.9363 0.0212 -1.0289 0
M  V30 30 O 3.6544 -0.2292 1.6548 0
M  V30 31 C 3.4529 -3.0513 1.8741 0
M  V30 32 O 4.5866 -2.5775 1.9287 0
M  V30 33 N 3.2617 -4.3891 1.9751 0
M  V30 34 H -1.1479 4.6828 -3.1458 0
M  V30 35 H -0.4907 2.9651 -4.7701 0
M  V30 36 H -4.4371 2.767 -0.2435 0
M  V30 37 H -4.4658 1.5569 1.1438 0
M  V30 38 H -3.0394 -0.3531 0.9136 0
M  V30 39 H -0.3754 0.7852 -5.2192 0
M  V30 40 H -1.9583 0.2215 2.675 0
M  V30 41 H -1.746 2.3809 1.9685 0
M  V30 42 H 0.106 -0.5386 3.0408 0
M  V30 43 H -0.7305 -2.6186 -1.7744 0
M  V30 44 H 1.507 0.9727 2.0795 0
M  V30 45 H -1.442 -3.3599 1.9066 0
M  V30 46 H 2.6182 2.256 0.2918 0
M  V30 47 H 0.952 2.7221 0.6871 0
M  V30 48 H 1.4266 2.5617 -0.9889 0
M  V30 49 H 3.0188 0.1438 -0.9095 0
M  V30 50 H 1.7132 -1.0471 -1.0706 0
M  V30 51 H 1.6695 0.4214 -2.0139 0
M  V30 52 H 4.3556 -0.9113 1.7702 0
M  V30 53 H 2.3298 -4.8007 1.9372 0
M  V30 54 H 4.0589 -4.9978 2.0935 0
M  V30 END ATOM
M  V30 BEGIN BOND
M  V30 1 1 1 2
M  V30 2 2 2 3
M  V30 3 1 2 4
M  V30 4 1 3 5
M  V30 5 1 3 6
M  V30 6 2 4 7
M  V30 7 1 5 8
M  V30 8 2 5 9
M  V30 9 2 6 10
M  V30 10 1 6 11
M  V30 11 2 8 12
M  V30 12 1 8 13
M  V30 13 1 9 14
M  V30 14 1 11 15
M  V30 15 2 13 16
M  V30 16 1 15 17
M  V30 17 1 15 18
M  V30 18 1 16 19
M  V30 19 1 16 20
M  V30 20 1 18 21
M  V30 21 1 20 22
M  V30 22 1 20 23
M  V30 23 1 21 24
M  V30 24 1 21 25
M  V30 25 2 23 26
M  V30 26 1 23 27
M  V30 27 1 24 28
M  V30 28 1 24 29
M  V30 29 1 25 30
M  V30 30 1 27 31
M  V30 31 2 31 32
M  V30 32 1 31 33
M  V30 33 1 7 9
M  V30 34 1 11 13
M  V30 35 1 18 20
M  V30 36 2 25 27
M  V30 37 1 4 34
M  V30 38 1 7 35
M  V30 39 1 10 36
M  V30 40 1 10 37
M  V30 41 1 11 38
M  V30 42 1 14 39
M  V30 43 1 15 40
M  V30 44 1 17 41
M  V30 45 1 18 42
M  V30 46 1 19 43
M  V30 47 1 21 44
M  V30 48 1 22 45
M  V30 49 1 28 46
M  V30 50 1 28 47
M  V30 51 1 28 48
M  V30 52 1 29 49
M  V30 53 1 29 50
M  V30 54 1 29 51
M  V30 55 1 30 52
M  V30 56 1 33 53
M  V30 57 1 33 54
M  V30 END BOND
M  V30 BEGIN COLLECTION
M  V30 MDLV30/STEABS ATOMS=(4 11 15 18 21)
M  V30 END COLLECTION
M  V30 END CTAB
M  END
>  <level_0>
2650

>  <index>
2650

>  <NO.>
2651

>  <Name>


>  <SMILES>
C=C1c2c(Cl)ccc(O)c2C(=O)C2=C(O)C3(O)C(=O)C(C(N)=O)=C(O)[C@@H](N(C)C)[C@H]3[C@@H](O)[C@@H]12

>  <logBB>


>  <Class>
-1

>  <MW>
476.1

>  <nHBAcc>
9

>  <nHBDon>
6

>  <SLogP>
0.22

>  <TopoPSA>
181.62

>  <MMFF94 Energy>
111.81

$$$$
C=C1c2cccc(O)c2C(=O)C2=C(O)C3(O)C(=O)C(C(N)=O)=C(O)[C@@H](N(C)C)[C@H]3[C@@H](O)[C@@H]12
Actelion Java MolfileCreator 2.0

  0  0  0  0  0  0              0 V3000
M  V30 BEGIN CTAB
M  V30 COUNTS 54 57 0 0 0
M  V30 BEGIN ATOM
M  V30 1 O 0.2419 -1.6945 2.9062 0
M  V30 2 C 0.8143 -0.8592 2.206 0
M  V30 3 C 1.2026 0.4546 2.7558 0
M  V30 4 C 1.0126 -1.0669 0.7548 0
M  V30 5 C 0.6054 0.9148 3.9402 0
M  V30 6 C 2.1295 1.2555 2.0714 0
M  V30 7 C 0.1542 -1.8655 0.0832 0
M  V30 8 C 2.0991 -0.3048 0.0332 0 CFG=2
M  V30 9 O -0.2801 0.1706 4.6741 0
M  V30 10 C 0.8872 2.1872 4.4254 0
M  V30 11 C 2.8261 0.7264 0.8808 0
M  V30 12 C 2.3888 2.5459 2.5662 0
M  V30 13 O -0.8035 -2.6546 0.6922 0
M  V30 14 C 0.1304 -1.8154 -1.4275 0
M  V30 15 C 1.7169 0.1553 -1.4184 0 CFG=1
M  V30 16 C 1.771 3.0084 3.7318 0
M  V30 17 C 4.1161 1.034 0.6417 0
M  V30 18 O 1.2157 -2.6487 -1.8756 0
M  V30 19 C -1.1568 -2.3927 -2.0497 0
M  V30 20 C 0.3623 -0.3889 -1.9304 0 CFG=2
M  V30 21 O 1.7922 1.5616 -1.657 0
M  V30 22 O -1.2433 -3.6082 -2.2737 0
M  V30 23 C -2.2794 -1.474 -2.4167 0
M  V30 24 C -0.8772 0.5249 -1.6758 0 CFG=1
M  V30 25 C -2.1319 -0.1396 -2.2423 0
M  V30 26 C -3.5674 -1.9856 -2.9789 0
M  V30 27 N -1.0092 1.0058 -0.2705 0
M  V30 28 O -3.1123 0.7889 -2.5884 0
M  V30 29 O -4.4871 -1.2312 -3.2912 0
M  V30 30 N -3.6942 -3.3257 -3.1361 0
M  V30 31 C -0.9599 2.4753 -0.217 0
M  V30 32 C -2.21 0.5737 0.4555 0
M  V30 33 H 2.8535 -1.0966 -0.1262 0
M  V30 34 H -0.3149 -0.7309 4.2861 0
M  V30 35 H 0.4116 2.5388 5.3374 0
M  V30 36 H 3.0725 3.2144 2.0475 0
M  V30 37 H -0.654 -2.6224 1.6651 0
M  V30 38 H 2.49 -0.269 -2.0753 0
M  V30 39 H 1.9847 4.0086 4.1013 0
M  V30 40 H 4.6927 1.7002 1.2771 0
M  V30 41 H 4.6561 0.5929 -0.1924 0
M  V30 42 H 0.8976 -3.5671 -1.7474 0
M  V30 43 H 0.4728 -0.4329 -3.0272 0
M  V30 44 H 2.6639 1.8755 -1.3624 0
M  V30 45 H -0.7082 1.3986 -2.3245 0
M  V30 46 H -3.903 0.3164 -2.9378 0
M  V30 47 H -2.9424 -3.9678 -2.8883 0
M  V30 48 H -4.5535 -3.7025 -3.5105 0
M  V30 49 H -1.8049 2.9327 -0.7448 0
M  V30 50 H -0.035 2.8651 -0.6499 0
M  V30 51 H -0.9756 2.822 0.8229 0
M  V30 52 H -3.1292 1.0254 0.0656 0
M  V30 53 H -2.3284 -0.5126 0.4495 0
M  V30 54 H -2.1265 0.8576 1.5116 0
M  V30 END ATOM
M  V30 BEGIN BOND
M  V30 1 2 1 2
M  V30 2 1 2 3
M  V30 3 1 2 4
M  V30 4 2 3 5
M  V30 5 1 3 6
M  V30 6 2 4 7
M  V30 7 1 4 8
M  V30 8 1 5 9
M  V30 9 1 5 10
M  V30 10 1 6 11
M  V30 11 2 6 12
M  V30 12 1 7 13
M  V30 13 1 7 14
M  V30 14 1 8 15
M  V30 15 2 10 16
M  V30 16 2 11 17
M  V30 17 1 14 18
M  V30 18 1 14 19
M  V30 19 1 14 20
M  V30 20 1 15 21
M  V30 21 2 19 22
M  V30 22 1 19 23
M  V30 23 1 20 24
M  V30 24 2 23 25
M  V30 25 1 23 26
M  V30 26 1 24 27
M  V30 27 1 25 28
M  V30 28 2 26 29
M  V30 29 1 26 30
M  V30 30 1 27 31
M  V30 31 1 27 32
M  V30 32 1 8 11
M  V30 33 1 12 16
M  V30 34 1 15 20
M  V30 35 1 24 25
M  V30 36 1 8 33
M  V30 37 1 9 34
M  V30 38 1 10 35
M  V30 39 1 12 36
M  V30 40 1 13 37
M  V30 41 1 15 38
M  V30 42 1 16 39
M  V30 43 1 17 40
M  V30 44 1 17 41
M  V30 45 1 18 42
M  V30 46 1 20 43
M  V30 47 1 21 44
M  V30 48 1 24 45
M  V30 49 1 28 46
M  V30 50 1 30 47
M  V30 51 1 30 48
M  V30 52 1 31 49
M  V30 53 1 31 50
M  V30 54 1 31 51
M  V30 55 1 32 52
M  V30 56 1 32 53
M  V30 57 1 32 54
M  V30 END BOND
M  V30 BEGIN COLLECTION
M  V30 MDLV30/STEABS ATOMS=(4 8 15 20 24)
M  V30 END COLLECTION
M  V30 END CTAB
M  END
>  <level_0>
2652

>  <index>
2652

>  <NO.>
2653

>  <Name>


>  <SMILES>
C=C1c2cccc(O)c2C(=O)C2=C(O)C3(O)C(=O)C(C(N)=O)=C(O)[C@@H](N(C)C)[C@H]3[C@@H](O)[C@@H]12

>  <logBB>


>  <Class>
-1

>  <MW>
442.14

>  <nHBAcc>
9

>  <nHBDon>
6

>  <SLogP>
-0.44

>  <TopoPSA>
181.62

>  <MMFF94 Energy>
99.759

$$$$
CC(=O)O[C@H]1CCC2(C)[C@H]3CCC4(C)C(C(C)CCCC(C)C)CC[C@H]4[C@@H]3C[C@H](Br)C2(Br)C1
Actelion Java MolfileCreator 2.0

  0  0  0  0  0  0              0 V3000
M  V30 BEGIN CTAB
M  V30 COUNTS 81 84 0 0 0
M  V30 BEGIN ATOM
M  V30 1 Br -0.5651 2.343 2.2622 0
M  V30 2 C -0.6234 3.2765 0.453 0
M  V30 3 C -1.345 2.3418 -0.606 0
M  V30 4 C 0.8409 3.5282 0.0131 0 CFG=1
M  V30 5 C -1.4331 4.572 0.7009 0
M  V30 6 C -0.5344 0.9965 -0.7722 0 CFG=2
M  V30 7 C -2.8137 2.0797 -0.1624 0
M  V30 8 C -1.428 3.0521 -1.9976 0
M  V30 9 Br 1.863 4.6891 1.2289 0
M  V30 10 C 1.6497 2.2442 -0.2088 0
M  V30 11 C -2.9115 4.3293 1.0529 0 CFG=2
M  V30 12 C 0.9573 1.2576 -1.1624 0 CFG=1
M  V30 13 C -1.1936 -0.0453 -1.7167 0
M  V30 14 C -3.6036 3.3641 0.0923 0
M  V30 15 O -3.6309 5.5799 0.9777 0
M  V30 16 C 1.6915 -0.0905 -1.2067 0 CFG=1
M  V30 17 C -0.377 -1.3464 -1.8467 0
M  V30 18 C -3.5749 6.3766 2.0804 0
M  V30 19 C 1.085 -1.0727 -2.2296 0
M  V30 20 C 3.1764 -0.1062 -1.5366 0
M  V30 21 O -2.9699 6.1258 3.1119 0
M  V30 22 C -4.3683 7.6256 1.8472 0
M  V30 23 C 2.0993 -2.2602 -2.185 0
M  V30 24 C 1.1055 -0.5228 -3.6899 0
M  V30 25 C 3.4618 -1.58 -1.8636 0
M  V30 26 C 1.7728 -3.5 -1.2942 0
M  V30 27 C 1.779 -3.249 0.2312 0
M  V30 28 C 2.733 -4.6486 -1.6566 0
M  V30 29 C 1.3143 -4.4597 1.0547 0
M  V30 30 C 1.1768 -4.0958 2.5379 0
M  V30 31 C 0.8376 -5.2996 3.4364 0
M  V30 32 C 0.8646 -4.8733 4.9064 0
M  V30 33 C -0.5228 -5.9131 3.1023 0
M  V30 34 H 0.8475 4.1129 -0.9135 0
M  V30 35 H -0.9913 5.1646 1.5111 0
M  V30 36 H -1.3738 5.2286 -0.1762 0
M  V30 37 H -0.5229 0.4974 0.2054 0
M  V30 38 H -2.8422 1.4527 0.7357 0
M  V30 39 H -3.351 1.5138 -0.933 0
M  V30 40 H -2.0393 2.4764 -2.7007 0
M  V30 41 H -1.8843 4.0438 -1.9381 0
M  V30 42 H -0.4524 3.1965 -2.466 0
M  V30 43 H 1.8623 1.7473 0.7459 0
M  V30 44 H 2.6317 2.5082 -0.6237 0
M  V30 45 H -3.0081 3.92 2.0657 0
M  V30 46 H 1.0013 1.7067 -2.1592 0
M  V30 47 H -2.1837 -0.3194 -1.3355 0
M  V30 48 H -1.3548 0.3806 -2.711 0
M  V30 49 H -3.8186 3.8721 -0.8559 0
M  V30 50 H -4.5926 3.1078 0.4942 0
M  V30 51 H 1.6015 -0.5148 -0.1989 0
M  V30 52 H -0.4434 -1.8697 -0.8886 0
M  V30 53 H -0.8518 -2.0024 -2.5863 0
M  V30 54 H 3.4079 0.5343 -2.3944 0
M  V30 55 H 3.7904 0.2362 -0.6972 0
M  V30 56 H -3.9448 8.1821 1.0074 0
M  V30 57 H -5.4131 7.3704 1.6528 0
M  V30 58 H -4.3244 8.2551 2.7406 0
M  V30 59 H 2.175 -2.6626 -3.2059 0
M  V30 60 H 0.544 0.4065 -3.8107 0
M  V30 61 H 0.66 -1.2551 -4.3744 0
M  V30 62 H 2.1212 -0.3303 -4.0505 0
M  V30 63 H 4.1369 -1.6449 -2.7248 0
M  V30 64 H 3.9799 -2.0564 -1.0267 0
M  V30 65 H 0.7678 -3.8412 -1.5757 0
M  V30 66 H 2.7803 -2.9599 0.5689 0
M  V30 67 H 1.1134 -2.4191 0.4757 0
M  V30 68 H 2.7774 -4.7975 -2.7409 0
M  V30 69 H 3.7489 -4.452 -1.2995 0
M  V30 70 H 2.3989 -5.5969 -1.2248 0
M  V30 71 H 2.0327 -5.2805 0.9569 0
M  V30 72 H 0.3526 -4.8093 0.664 0
M  V30 73 H 2.1222 -3.6549 2.8798 0
M  V30 74 H 0.4089 -3.3199 2.6531 0
M  V30 75 H 1.6057 -6.0707 3.2965 0
M  V30 76 H 1.8461 -4.4697 5.177 0
M  V30 77 H 0.1128 -4.1033 5.1111 0
M  V30 78 H 0.6637 -5.7264 5.5632 0
M  V30 79 H -0.5297 -6.3441 2.0968 0
M  V30 80 H -1.3207 -5.1648 3.1594 0
M  V30 81 H -0.7667 -6.7204 3.8014 0
M  V30 END ATOM
M  V30 BEGIN BOND
M  V30 1 1 1 2
M  V30 2 1 2 3
M  V30 3 1 2 4
M  V30 4 1 2 5
M  V30 5 1 3 6
M  V30 6 1 3 7
M  V30 7 1 3 8
M  V30 8 1 4 9
M  V30 9 1 4 10
M  V30 10 1 5 11
M  V30 11 1 6 12
M  V30 12 1 6 13
M  V30 13 1 7 14
M  V30 14 1 11 15
M  V30 15 1 12 16
M  V30 16 1 13 17
M  V30 17 1 15 18
M  V30 18 1 16 19
M  V30 19 1 16 20
M  V30 20 2 18 21
M  V30 21 1 18 22
M  V30 22 1 19 23
M  V30 23 1 19 24
M  V30 24 1 20 25
M  V30 25 1 23 26
M  V30 26 1 26 27
M  V30 27 1 26 28
M  V30 28 1 27 29
M  V30 29 1 29 30
M  V30 30 1 30 31
M  V30 31 1 31 32
M  V30 32 1 31 33
M  V30 33 1 10 12
M  V30 34 1 11 14
M  V30 35 1 17 19
M  V30 36 1 23 25
M  V30 37 1 4 34
M  V30 38 1 5 35
M  V30 39 1 5 36
M  V30 40 1 6 37
M  V30 41 1 7 38
M  V30 42 1 7 39
M  V30 43 1 8 40
M  V30 44 1 8 41
M  V30 45 1 8 42
M  V30 46 1 10 43
M  V30 47 1 10 44
M  V30 48 1 11 45
M  V30 49 1 12 46
M  V30 50 1 13 47
M  V30 51 1 13 48
M  V30 52 1 14 49
M  V30 53 1 14 50
M  V30 54 1 16 51
M  V30 55 1 17 52
M  V30 56 1 17 53
M  V30 57 1 20 54
M  V30 58 1 20 55
M  V30 59 1 22 56
M  V30 60 1 22 57
M  V30 61 1 22 58
M  V30 62 1 23 59
M  V30 63 1 24 60
M  V30 64 1 24 61
M  V30 65 1 24 62
M  V30 66 1 25 63
M  V30 67 1 25 64
M  V30 68 1 26 65
M  V30 69 1 27 66
M  V30 70 1 27 67
M  V30 71 1 28 68
M  V30 72 1 28 69
M  V30 73 1 28 70
M  V30 74 1 29 71
M  V30 75 1 29 72
M  V30 76 1 30 73
M  V30 77 1 30 74
M  V30 78 1 31 75
M  V30 79 1 32 76
M  V30 80 1 32 77
M  V30 81 1 32 78
M  V30 82 1 33 79
M  V30 83 1 33 80
M  V30 84 1 33 81
M  V30 END BOND
M  V30 BEGIN COLLECTION
M  V30 MDLV30/STEABS ATOMS=(5 4 6 11 12 16)
M  V30 END COLLECTION
M  V30 END CTAB
M  END
>  <level_0>
2754

>  <index>
2754

>  <NO.>
2755

>  <Name>


>  <SMILES>
CC(=O)O[C@H]1CCC2(C)[C@H]3CCC4(C)C(C(C)CCCC(C)C)CC[C@H]4[C@@H]3C[C@H](Br)C2(Br)C1

>  <logBB>


>  <Class>
1

>  <MW>
586.2

>  <nHBAcc>
2

>  <nHBDon>
0

>  <SLogP>
8.93

>  <TopoPSA>
26.3

>  <MMFF94 Energy>
100.31

$$$$
CC(C)C[C@H](N)C(=O)N[C@@H](CCCN)C(=O)N[C@H](C(=O)N[C@@H](CCCN)C(=O)N1CCC[C@H]1C(=O)N[C@H](C=O)Cc1ccccc1)C(C)C
Actelion Java MolfileCreator 2.0

  0  0  0  0  0  0              0 V3000
M  V30 BEGIN CTAB
M  V30 COUNTS 107 108 0 0 0
M  V30 BEGIN ATOM
M  V30 1 O -7.3084 -1.6466 0.5486 0
M  V30 2 C -6.1064 -1.6092 0.2861 0
M  V30 3 N -5.5159 -0.4603 -0.177 0
M  V30 4 C -5.2017 -2.8692 0.3104 0 CFG=1
M  V30 5 C -6.2017 0.8259 -0.2185 0 CFG=2
M  V30 6 N -3.8666 -2.6486 0.9016 0
M  V30 7 C -5.8283 -3.9652 1.1888 0
M  V30 8 C -5.3721 1.7843 -1.0674 0
M  V30 9 C -6.4037 1.4118 1.1865 0
M  V30 10 C -2.8733 -1.9838 0.22 0
M  V30 11 C -3.7029 -3.4374 2.1106 0
M  V30 12 C -4.6431 -4.6093 1.8942 0
M  V30 13 O -4.2037 1.5859 -1.3962 0
M  V30 14 C -7.2518 2.6618 1.1918 0
M  V30 15 O -3.0807 -1.5451 -0.9179 0
M  V30 16 C -1.5223 -1.722 0.9217 0 CFG=1
M  V30 17 C -6.6655 3.9161 1.4082 0
M  V30 18 C -8.6328 2.583 0.9661 0
M  V30 19 N -0.5802 -1.2602 -0.0927 0
M  V30 20 C -1.6507 -0.7032 2.0674 0
M  V30 21 C -7.4468 5.072 1.3895 0
M  V30 22 C -9.4115 3.7406 0.9485 0
M  V30 23 C 0.7824 -1.3257 0.0749 0
M  V30 24 C -2.1834 0.6651 1.6202 0
M  V30 25 C -8.8184 4.9845 1.1579 0
M  V30 26 O 1.298 -1.8369 1.0678 0
M  V30 27 C 1.596 -0.7529 -1.1064 0 CFG=1
M  V30 28 C -2.2029 1.6605 2.779 0
M  V30 29 N 2.915 -0.3662 -0.6344 0
M  V30 30 C 1.6427 -1.7398 -2.2946 0
M  V30 31 N -2.7806 2.9294 2.3454 0
M  V30 32 C 3.1877 0.89 -0.1374 0
M  V30 33 C 2.2961 -1.0904 -3.5186 0
M  V30 34 C 2.3477 -3.0606 -1.9699 0
M  V30 35 O 2.3617 1.7997 -0.1358 0
M  V30 36 C 4.6285 1.0392 0.4094 0 CFG=1
M  V30 37 N 5.5493 0.9436 -0.721 0
M  V30 38 C 4.842 2.3633 1.151 0
M  V30 39 C 5.9691 -0.2552 -1.2538 0
M  V30 40 C 4.1506 2.3814 2.5185 0
M  V30 41 O 5.6014 -1.3381 -0.8085 0
M  V30 42 C 6.8699 -0.0768 -2.502 0 CFG=1
M  V30 43 C 4.3543 3.7241 3.218 0
M  V30 44 N 7.8409 1.0133 -2.2239 0
M  V30 45 C 7.6136 -1.3642 -2.8898 0
M  V30 46 N 3.7181 3.712 4.5299 0
M  V30 47 C 6.7303 -2.4563 -3.534 0
M  V30 48 C 6.1806 -2.0302 -4.897 0
M  V30 49 C 7.5403 -3.7466 -3.6908 0
M  V30 50 H -4.5807 -0.5118 -0.59 0
M  V30 51 H -5.0711 -3.2151 -0.7217 0
M  V30 52 H -7.1584 0.6725 -0.7309 0
M  V30 53 H -6.5059 -3.5465 1.9428 0
M  V30 54 H -6.3997 -4.687 0.597 0
M  V30 55 H -5.8901 2.708 -1.3784 0
M  V30 56 H -5.4308 1.6233 1.6476 0
M  V30 57 H -6.8817 0.6771 1.847 0
M  V30 58 H -2.6742 -3.7626 2.2715 0
M  V30 59 H -4.0281 -2.8233 2.9572 0
M  V30 60 H -4.1781 -5.3506 1.2332 0
M  V30 61 H -4.9216 -5.1061 2.8275 0
M  V30 62 H -1.1325 -2.6677 1.3104 0
M  V30 63 H -5.596 4.0002 1.5965 0
M  V30 64 H -9.111 1.6175 0.8099 0
M  V30 65 H -0.9831 -0.8542 -0.9342 0
M  V30 66 H -2.3119 -1.1001 2.8456 0
M  V30 67 H -0.6689 -0.5642 2.537 0
M  V30 68 H -6.9851 6.0412 1.5601 0
M  V30 69 H -10.4825 3.6715 0.776 0
M  V30 70 H -1.5624 1.0649 0.8095 0
M  V30 71 H -3.1974 0.5506 1.224 0
M  V30 72 H -9.4264 5.8853 1.1472 0
M  V30 73 H 1.076 0.1572 -1.4339 0
M  V30 74 H -1.1843 1.8306 3.1448 0
M  V30 75 H -2.7967 1.2658 3.6102 0
M  V30 76 H 3.624 -1.0871 -0.5007 0
M  V30 77 H 0.6089 -1.988 -2.5699 0
M  V30 78 H -2.6494 3.6229 3.081 0
M  V30 79 H -2.2592 3.274 1.5375 0
M  V30 80 H 3.3485 -0.851 -3.3344 0
M  V30 81 H 2.2521 -1.762 -4.3826 0
M  V30 82 H 1.7787 -0.1643 -3.7903 0
M  V30 83 H 1.8789 -3.5646 -1.1194 0
M  V30 84 H 2.2901 -3.7431 -2.8251 0
M  V30 85 H 3.407 -2.9133 -1.7399 0
M  V30 86 H 4.8262 0.1971 1.0842 0
M  V30 87 H 5.9202 1.784 -1.1564 0
M  V30 88 H 5.9176 2.5253 1.3011 0
M  V30 89 H 4.4851 3.203 0.5408 0
M  V30 90 H 3.0776 2.1878 2.4028 0
M  V30 91 H 4.5567 1.5733 3.1402 0
M  V30 92 H 6.227 0.2682 -3.3174 0
M  V30 93 H 3.9275 4.5332 2.6151 0
M  V30 94 H 5.4231 3.9278 3.3423 0
M  V30 95 H 8.458 0.7068 -1.4688 0
M  V30 96 H 8.4459 1.1268 -3.0378 0
M  V30 97 H 8.0975 -1.7787 -1.9948 0
M  V30 98 H 8.4222 -1.1222 -3.5931 0
M  V30 99 H 3.7979 4.636 4.9523 0
M  V30 100 H 2.7201 3.5333 4.4222 0
M  V30 101 H 5.88 -2.6804 -2.8814 0
M  V30 102 H 5.4982 -1.1805 -4.8075 0
M  V30 103 H 6.9884 -1.7487 -5.5808 0
M  V30 104 H 5.6172 -2.8478 -5.3598 0
M  V30 105 H 7.9059 -4.0967 -2.7196 0
M  V30 106 H 8.4053 -3.5965 -4.3458 0
M  V30 107 H 6.924 -4.5436 -4.1203 0
M  V30 END ATOM
M  V30 BEGIN BOND
M  V30 1 2 1 2
M  V30 2 1 2 3
M  V30 3 1 2 4
M  V30 4 1 3 5
M  V30 5 1 4 6
M  V30 6 1 4 7
M  V30 7 1 5 8
M  V30 8 1 5 9
M  V30 9 1 6 10
M  V30 10 1 6 11
M  V30 11 1 7 12
M  V30 12 2 8 13
M  V30 13 1 9 14
M  V30 14 2 10 15
M  V30 15 1 10 16
M  V30 16 2 14 17
M  V30 17 1 14 18
M  V30 18 1 16 19
M  V30 19 1 16 20
M  V30 20 1 17 21
M  V30 21 2 18 22
M  V30 22 1 19 23
M  V30 23 1 20 24
M  V30 24 2 21 25
M  V30 25 2 23 26
M  V30 26 1 23 27
M  V30 27 1 24 28
M  V30 28 1 27 29
M  V30 29 1 27 30
M  V30 30 1 28 31
M  V30 31 1 29 32
M  V30 32 1 30 33
M  V30 33 1 30 34
M  V30 34 2 32 35
M  V30 35 1 32 36
M  V30 36 1 36 37
M  V30 37 1 36 38
M  V30 38 1 37 39
M  V30 39 1 38 40
M  V30 40 2 39 41
M  V30 41 1 39 42
M  V30 42 1 40 43
M  V30 43 1 42 44
M  V30 44 1 42 45
M  V30 45 1 43 46
M  V30 46 1 45 47
M  V30 47 1 47 48
M  V30 48 1 47 49
M  V30 49 1 11 12
M  V30 50 1 22 25
M  V30 51 1 3 50
M  V30 52 1 4 51
M  V30 53 1 5 52
M  V30 54 1 7 53
M  V30 55 1 7 54
M  V30 56 1 8 55
M  V30 57 1 9 56
M  V30 58 1 9 57
M  V30 59 1 11 58
M  V30 60 1 11 59
M  V30 61 1 12 60
M  V30 62 1 12 61
M  V30 63 1 16 62
M  V30 64 1 17 63
M  V30 65 1 18 64
M  V30 66 1 19 65
M  V30 67 1 20 66
M  V30 68 1 20 67
M  V30 69 1 21 68
M  V30 70 1 22 69
M  V30 71 1 24 70
M  V30 72 1 24 71
M  V30 73 1 25 72
M  V30 74 1 27 73
M  V30 75 1 28 74
M  V30 76 1 28 75
M  V30 77 1 29 76
M  V30 78 1 30 77
M  V30 79 1 31 78
M  V30 80 1 31 79
M  V30 81 1 33 80
M  V30 82 1 33 81
M  V30 83 1 33 82
M  V30 84 1 34 83
M  V30 85 1 34 84
M  V30 86 1 34 85
M  V30 87 1 36 86
M  V30 88 1 37 87
M  V30 89 1 38 88
M  V30 90 1 38 89
M  V30 91 1 40 90
M  V30 92 1 40 91
M  V30 93 1 42 92
M  V30 94 1 43 93
M  V30 95 1 43 94
M  V30 96 1 44 95
M  V30 97 1 44 96
M  V30 98 1 45 97
M  V30 99 1 45 98
M  V30 100 1 46 99
M  V30 101 1 46 100
M  V30 102 1 47 101
M  V30 103 1 48 102
M  V30 104 1 48 103
M  V30 105 1 48 104
M  V30 106 1 49 105
M  V30 107 1 49 106
M  V30 108 1 49 107
M  V30 END BOND
M  V30 BEGIN COLLECTION
M  V30 MDLV30/STEABS ATOMS=(6 4 5 16 27 36 42)
M  V30 END COLLECTION
M  V30 END CTAB
M  END
>  <level_0>
2809

>  <index>
2809

>  <NO.>
2810

>  <Name>


>  <SMILES>
CC(C)C[C@H](N)C(=O)N[C@@H](CCCN)C(=O)N[C@H](C(=O)N[C@@H](CCCN)C(=O)N1CCC[C@H]1C(=O)N[C@H](C=O)Cc1ccccc1)C(C)C

>  <logBB>


>  <Class>
-1

>  <MW>
686.45

>  <nHBAcc>
9

>  <nHBDon>
7

>  <SLogP>
-0.13

>  <TopoPSA>
231.84

>  <MMFF94 Energy>
106.46

$$$$
CC1(C)C(NC/C(=N/OCC(=O)O)c2csc(N)n2)C(=O)N1OS(=O)(=O)O
Actelion Java MolfileCreator 2.0

  0  0  0  0  0  0              0 V3000
M  V30 BEGIN CTAB
M  V30 COUNTS 44 45 0 0 0
M  V30 BEGIN ATOM
M  V30 1 S 3.6885 2.7039 -2.3759 0
M  V30 2 O 4.5535 1.7404 -3.0229 0
M  V30 3 O 2.3125 2.882 -2.7834 0
M  V30 4 O 3.76 2.4262 -0.7633 0
M  V30 5 O 4.4421 4.1203 -2.5291 0
M  V30 6 N 2.7299 1.5961 -0.3088 0
M  V30 7 C 1.8454 2.0622 0.6012 0
M  V30 8 C 3.0006 0.3184 0.3568 0
M  V30 9 O 1.4245 3.1687 0.8412 0
M  V30 10 C 1.7064 0.6257 1.2194 0 CFG=2
M  V30 11 C 3.0031 -0.8188 -0.6574 0
M  V30 12 C 4.2906 0.3502 1.1784 0
M  V30 13 N 0.5286 -0.1328 0.7386 0
M  V30 14 C -0.6477 0.2537 1.5453 0
M  V30 15 C -1.9065 -0.4157 0.983 0
M  V30 16 N -2.0646 -1.689 1.2218 0
M  V30 17 C -2.8458 0.4073 0.2053 0
M  V30 18 O -3.1938 -2.2274 0.5865 0
M  V30 19 N -4.2278 0.2425 0.3003 0
M  V30 20 C -2.4689 1.4423 -0.6347 0
M  V30 21 C -3.3171 -3.5988 0.9235 0
M  V30 22 C -4.8548 1.0917 -0.4717 0
M  V30 23 S -3.8488 2.1722 -1.3412 0
M  V30 24 C -2.4298 -4.5134 0.1049 0
M  V30 25 N -6.1854 1.1351 -0.5815 0
M  V30 26 O -1.9182 -5.5531 0.497 0
M  V30 27 O -2.2859 -4.1426 -1.1848 0
M  V30 28 H 5.4018 3.9439 -2.5935 0
M  V30 29 H 1.8666 0.5839 2.3023 0
M  V30 30 H 2.9636 -1.7886 -0.1498 0
M  V30 31 H 2.155 -0.7656 -1.3485 0
M  V30 32 H 3.9136 -0.7993 -1.2672 0
M  V30 33 H 4.3297 1.2158 1.8496 0
M  V30 34 H 5.1737 0.3904 0.5312 0
M  V30 35 H 4.3705 -0.5501 1.7974 0
M  V30 36 H 0.3177 0.002 -0.2514 0
M  V30 37 H -0.7823 1.3405 1.5658 0
M  V30 38 H -0.5157 -0.0919 2.5775 0
M  V30 39 H -1.4793 1.8007 -0.8792 0
M  V30 40 H -4.3546 -3.8986 0.7457 0
M  V30 41 H -3.1 -3.7468 1.9879 0
M  V30 42 H -6.6579 1.7927 -1.1852 0
M  V30 43 H -6.7491 0.4771 -0.0596 0
M  V30 44 H -1.6998 -4.8285 -1.5637 0
M  V30 END ATOM
M  V30 BEGIN BOND
M  V30 1 2 1 2
M  V30 2 2 1 3
M  V30 3 1 1 4
M  V30 4 1 1 5
M  V30 5 1 4 6
M  V30 6 1 6 7
M  V30 7 1 6 8
M  V30 8 2 7 9
M  V30 9 1 7 10
M  V30 10 1 8 11
M  V30 11 1 8 12
M  V30 12 1 10 13
M  V30 13 1 13 14
M  V30 14 1 14 15
M  V30 15 2 15 16
M  V30 16 1 15 17
M  V30 17 1 16 18
M  V30 18 1 17 19
M  V30 19 2 17 20
M  V30 20 1 18 21
M  V30 21 2 19 22
M  V30 22 1 20 23
M  V30 23 1 21 24
M  V30 24 1 22 25
M  V30 25 2 24 26
M  V30 26 1 24 27
M  V30 27 1 8 10
M  V30 28 1 22 23
M  V30 29 1 5 28
M  V30 30 1 10 29
M  V30 31 1 11 30
M  V30 32 1 11 31
M  V30 33 1 11 32
M  V30 34 1 12 33
M  V30 35 1 12 34
M  V30 36 1 12 35
M  V30 37 1 13 36
M  V30 38 1 14 37
M  V30 39 1 14 38
M  V30 40 1 20 39
M  V30 41 1 21 40
M  V30 42 1 21 41
M  V30 43 1 25 42
M  V30 44 1 25 43
M  V30 45 1 27 44
M  V30 END BOND
M  V30 BEGIN COLLECTION
M  V30 MDLV30/STERAC1 ATOMS=(1 10)
M  V30 END COLLECTION
M  V30 END CTAB
M  END
>  <level_0>
2838

>  <index>
2838

>  <NO.>
2839

>  <Name>


>  <SMILES>
CC1(C)C(NC/C(=N/OCC(=O)O)c2csc(N)n2)C(=O)N1OS(=O)(=O)O

>  <logBB>


>  <Class>
-1

>  <MW>
423.05

>  <nHBAcc>
11

>  <nHBDon>
4

>  <SLogP>
-1.16

>  <TopoPSA>
193.74

>  <MMFF94 Energy>
73.294

$$$$
CC1(C)S[C@H]2C(NC(=O)[C@@H](N)c3ccccc3)C(=O)N2[C@H]1C(=O)OCOC(=O)[C@@H]1N2C(=O)C[C@@H]2S(=O)(=O)C1(C)C
Actelion Java MolfileCreator 2.0

  0  0  0  0  0  0              0 V3000
M  V30 BEGIN CTAB
M  V30 COUNTS 70 74 0 0 0
M  V30 BEGIN ATOM
M  V30 1 S 2.9644 -5.0269 4.3665 0
M  V30 2 O 4.3684 -5.0175 4.7347 0
M  V30 3 O 1.9985 -4.3371 5.1961 0
M  V30 4 C 2.8123 -4.4387 2.6263 0
M  V30 5 C 2.4471 -6.7098 4.0508 0 CFG=2
M  V30 6 C 1.6008 -5.2448 2.1131 0 CFG=1
M  V30 7 C 2.6734 -2.9145 2.5936 0
M  V30 8 C 4.0747 -4.838 1.8381 0
M  V30 9 N 1.6562 -6.5177 2.8253 0
M  V30 10 C 1.1934 -7.3363 4.67 0
M  V30 11 C 0.2785 -4.503 2.3729 0
M  V30 12 C 0.5941 -7.2494 3.2404 0
M  V30 13 O -0.3217 -4.4755 3.4368 0
M  V30 14 O -0.1041 -3.843 1.2466 0
M  V30 15 O -0.4304 -7.534 2.673 0
M  V30 16 C -1.2632 -3.0346 1.4437 0
M  V30 17 O -1.5836 -2.3184 0.2444 0
M  V30 18 C -0.7534 -1.2774 -0.0206 0
M  V30 19 O 0.2385 -1.0034 0.6469 0
M  V30 20 C -1.122 -0.5725 -1.332 0 CFG=2
M  V30 21 N -0.789 0.842 -1.3249 0
M  V30 22 C -2.5551 -0.6762 -1.8995 0
M  V30 23 C -1.2617 1.7532 -0.4295 0
M  V30 24 C -1.1788 1.6228 -2.5021 0 CFG=1
M  V30 25 S -2.6526 0.7169 -3.1587 0
M  V30 26 C -3.6976 -0.4514 -0.9 0
M  V30 27 C -2.7759 -1.9892 -2.6614 0
M  V30 28 O -1.4756 1.6688 0.7564 0
M  V30 29 C -1.5034 2.8047 -1.5457 0
M  V30 30 N -0.5448 3.9451 -1.5288 0
M  V30 31 C -0.2602 4.6672 -2.6688 0
M  V30 32 O -0.7712 4.3902 -3.7549 0
M  V30 33 C 0.7413 5.8363 -2.4722 0 CFG=1
M  V30 34 N 1.6825 5.8677 -3.6058 0
M  V30 35 C 0.0377 7.1701 -2.303 0
M  V30 36 C 0.3922 8.0157 -1.2386 0
M  V30 37 C -0.9439 7.6074 -3.2075 0
M  V30 38 C -0.232 9.2538 -1.0731 0
M  V30 39 C -1.5671 8.8456 -3.0393 0
M  V30 40 C -1.2127 9.667 -1.9718 0
M  V30 41 H 3.2879 -7.3921 3.8884 0
M  V30 42 H 1.6643 -5.4735 1.0431 0
M  V30 43 H 1.8342 -2.5549 3.1975 0
M  V30 44 H 2.5327 -2.5564 1.5683 0
M  V30 45 H 3.5729 -2.4341 2.9958 0
M  V30 46 H 4.2672 -5.9149 1.8894 0
M  V30 47 H 3.9743 -4.5664 0.7813 0
M  V30 48 H 4.9646 -4.3307 2.2272 0
M  V30 49 H 1.321 -8.3574 5.0374 0
M  V30 50 H 0.6598 -6.7349 5.4099 0
M  V30 51 H -2.1215 -3.6804 1.6603 0
M  V30 52 H -1.1305 -2.3328 2.2779 0
M  V30 53 H -0.4308 -1.0153 -2.0651 0
M  V30 54 H -0.3591 1.7546 -3.2131 0
M  V30 55 H -4.6711 -0.4476 -1.4063 0
M  V30 56 H -3.6122 0.4947 -0.3592 0
M  V30 57 H -3.7458 -1.249 -0.153 0
M  V30 58 H -3.7541 -2.0093 -3.1568 0
M  V30 59 H -2.0097 -2.1498 -3.4288 0
M  V30 60 H -2.7432 -2.85 -1.9855 0
M  V30 61 H -2.5365 3.1692 -1.5726 0
M  V30 62 H -0.1044 4.2128 -0.6547 0
M  V30 63 H 1.3316 5.6212 -1.5731 0
M  V30 64 H 2.159 6.7685 -3.6083 0
M  V30 65 H 1.128 5.8425 -4.4648 0
M  V30 66 H 1.1621 7.7195 -0.5289 0
M  V30 67 H -1.2353 6.9861 -4.0532 0
M  V30 68 H 0.0489 9.8983 -0.2438 0
M  V30 69 H -2.3293 9.1686 -3.7442 0
M  V30 70 H -1.6984 10.631 -1.8429 0
M  V30 END ATOM
M  V30 BEGIN BOND
M  V30 1 2 1 2
M  V30 2 2 1 3
M  V30 3 1 1 4
M  V30 4 1 1 5
M  V30 5 1 4 6
M  V30 6 1 4 7
M  V30 7 1 4 8
M  V30 8 1 5 9
M  V30 9 1 5 10
M  V30 10 1 6 11
M  V30 11 1 9 12
M  V30 12 2 11 13
M  V30 13 1 11 14
M  V30 14 2 12 15
M  V30 15 1 14 16
M  V30 16 1 16 17
M  V30 17 1 17 18
M  V30 18 2 18 19
M  V30 19 1 18 20
M  V30 20 1 20 21
M  V30 21 1 20 22
M  V30 22 1 21 23
M  V30 23 1 21 24
M  V30 24 1 22 25
M  V30 25 1 22 26
M  V30 26 1 22 27
M  V30 27 2 23 28
M  V30 28 1 23 29
M  V30 29 1 29 30
M  V30 30 1 30 31
M  V30 31 2 31 32
M  V30 32 1 31 33
M  V30 33 1 33 34
M  V30 34 1 33 35
M  V30 35 2 35 36
M  V30 36 1 35 37
M  V30 37 1 36 38
M  V30 38 2 37 39
M  V30 39 2 38 40
M  V30 40 1 6 9
M  V30 41 1 10 12
M  V30 42 1 24 25
M  V30 43 1 24 29
M  V30 44 1 39 40
M  V30 45 1 5 41
M  V30 46 1 6 42
M  V30 47 1 7 43
M  V30 48 1 7 44
M  V30 49 1 7 45
M  V30 50 1 8 46
M  V30 51 1 8 47
M  V30 52 1 8 48
M  V30 53 1 10 49
M  V30 54 1 10 50
M  V30 55 1 16 51
M  V30 56 1 16 52
M  V30 57 1 20 53
M  V30 58 1 24 54
M  V30 59 1 26 55
M  V30 60 1 26 56
M  V30 61 1 26 57
M  V30 62 1 27 58
M  V30 63 1 27 59
M  V30 64 1 27 60
M  V30 65 1 29 61
M  V30 66 1 30 62
M  V30 67 1 33 63
M  V30 68 1 34 64
M  V30 69 1 34 65
M  V30 70 1 36 66
M  V30 71 1 37 67
M  V30 72 1 38 68
M  V30 73 1 39 69
M  V30 74 1 40 70
M  V30 END BOND
M  V30 BEGIN COLLECTION
M  V30 MDLV30/STEABS ATOMS=(5 5 6 20 24 33)
M  V30 END COLLECTION
M  V30 END CTAB
M  END
>  <level_0>
2879

>  <index>
2879

>  <NO.>
2880

>  <Name>


>  <SMILES>
CC1(C)S[C@H]2C(NC(=O)[C@@H](N)c3ccccc3)C(=O)N2[C@H]1C(=O)OCOC(=O)[C@@H]1N2C(=O)C[C@@H]2S(=O)(=O)C1(C)C

>  <logBB>


>  <Class>
-1

>  <MW>
594.15

>  <nHBAcc>
11

>  <nHBDon>
2

>  <SLogP>
-0.59

>  <TopoPSA>
182.48

>  <MMFF94 Energy>
94.079

$$$$
CCC(=O)O[C@@H]1[C@H](O[C@H]2C(C)[C@H](O[C@@H]3CC(C)(OC)[C@@H](O)[C@H](C)O3)[C@H](C)C(=O)O[C@@H](CC)C(C)(O)[C@@H](O)[C@H](C)C(=O)[C@@H](C)CC2(C)O)O[C@@H](C)C[C@@H]1N(C)C
Actelion Java MolfileCreator 2.0

  0  0  0  0  0  0              0 V3000
M  V30 BEGIN CTAB
M  V30 COUNTS 126 128 0 0 0
M  V30 BEGIN ATOM
M  V30 1 O 0.1581 4.7526 -0.079 0
M  V30 2 C 0.1251 3.7584 0.6322 0
M  V30 3 O 0.9994 3.5116 1.653 0
M  V30 4 C -0.9576 2.6931 0.5773 0 CFG=2
M  V30 5 C 1.9209 4.5843 1.9729 0 CFG=2
M  V30 6 C -0.4205 1.2325 0.5144 0 CFG=1
M  V30 7 C -2.014 3.0566 -0.4774 0
M  V30 8 C 3.3219 3.984 2.3576 0
M  V30 9 C 1.2788 5.5155 3.0278 0
M  V30 10 O -1.4968 0.2985 0.3469 0
M  V30 11 C 0.6962 0.9404 -0.5439 0
M  V30 12 O 4.2462 5.0579 2.6429 0
M  V30 13 C 3.9094 3.2565 1.0974 0 CFG=1
M  V30 14 C 3.2431 3.0806 3.5902 0
M  V30 15 C 0.313 4.8558 4.0057 0
M  V30 16 C -2.3256 0.0951 1.4974 0 CFG=1
M  V30 17 C 1.2151 -0.5409 -0.6682 0 CFG=2
M  V30 18 C 0.3075 1.4197 -1.9536 0
M  V30 19 O 4.171 4.2545 0.0963 0
M  V30 20 C 5.1908 2.4231 1.3163 0 CFG=1
M  V30 21 O -3.2615 1.1595 1.6454 0
M  V30 22 C -3.0812 -1.2164 1.291 0
M  V30 23 O 0.1752 -1.3259 -1.284 0
M  V30 24 C 1.7977 -1.2642 0.6012 0
M  V30 25 C 4.8349 0.988 1.702 0
M  V30 26 C 6.1364 2.3904 0.1122 0
M  V30 27 C -4.1137 1.0126 2.7857 0 CFG=2
M  V30 28 C -4.0406 -1.5119 2.4536 0
M  V30 29 C 0.6399 -2.2648 -2.2622 0 CFG=2
M  V30 30 O 2.5129 -2.4339 0.1454 0
M  V30 31 C 2.797 -0.4113 1.4187 0
M  V30 32 C 0.7165 -1.8196 1.5389 0
M  V30 33 O 5.1579 0.5465 2.809 0
M  V30 34 C 4.0701 0.1049 0.7063 0 CFG=2
M  V30 35 C -4.9479 -0.2762 2.6873 0 CFG=1
M  V30 36 C -5.0053 2.2497 2.8453 0
M  V30 37 O -4.8725 -2.6793 2.2592 0
M  V30 38 C -3.2391 -1.8705 3.7234 0
M  V30 39 O 1.3041 -1.5773 -3.3309 0
M  V30 40 C -0.5687 -3.0636 -2.8093 0 CFG=1
M  V30 41 C 5.0178 -0.9922 0.227 0
M  V30 42 O -5.7499 -0.458 3.8579 0
M  V30 43 C -5.4193 -2.8765 0.9624 0
M  V30 44 C 1.8251 -2.417 -4.3591 0 CFG=2
M  V30 45 O -1.4772 -2.119 -3.4257 0
M  V30 46 C -0.038 -4.0747 -3.862 0 CFG=2
M  V30 47 C 0.7436 -3.3247 -4.9555 0
M  V30 48 C 3.0647 -3.1731 -3.8842 0
M  V30 49 C -2.6124 -1.8323 -2.734 0
M  V30 50 N -1.0722 -5.0248 -4.3542 0
M  V30 51 O -3.0206 -2.4286 -1.7477 0
M  V30 52 C -3.33 -0.6918 -3.4161 0
M  V30 53 C -0.4754 -6.275 -4.8316 0
M  V30 54 C -1.9744 -4.4921 -5.3736 0
M  V30 55 C -4.4352 -0.1129 -2.5511 0
M  V30 56 H -1.477 2.799 1.54 0
M  V30 57 H 2.0971 5.217 1.0926 0
M  V30 58 H 0.0462 1.0368 1.4865 0
M  V30 59 H -2.559 3.9537 -0.1589 0
M  V30 60 H -2.7529 2.2654 -0.6237 0
M  V30 61 H -1.5818 3.2963 -1.4511 0
M  V30 62 H 2.0442 6.0731 3.5765 0
M  V30 63 H 0.6962 6.2733 2.4865 0
M  V30 64 H 1.5617 1.5421 -0.257 0
M  V30 65 H 4.0887 5.3686 3.5525 0
M  V30 66 H 3.134 2.6166 0.6801 0
M  V30 67 H 4.2322 2.7203 3.8869 0
M  V30 68 H 2.8932 3.6384 4.4639 0
M  V30 69 H 2.5824 2.2243 3.4334 0
M  V30 70 H -0.0378 5.5946 4.734 0
M  V30 71 H 0.7723 4.0354 4.5595 0
M  V30 72 H -0.5698 4.4661 3.4895 0
M  V30 73 H -1.6952 0.0457 2.3906 0
M  V30 74 H 2.0564 -0.4848 -1.3732 0
M  V30 75 H 0.3073 2.5108 -2.0093 0
M  V30 76 H 1.037 1.0896 -2.7009 0
M  V30 77 H -0.6758 1.0456 -2.253 0
M  V30 78 H 4.5878 4.9995 0.5786 0
M  V30 79 H 5.7659 2.8524 2.1463 0
M  V30 80 H -3.6526 -1.1223 0.3615 0
M  V30 81 H -2.3918 -2.0517 1.1249 0
M  V30 82 H 5.6242 2.0674 -0.7999 0
M  V30 83 H 6.9676 1.6989 0.2888 0
M  V30 84 H 6.5688 3.3794 -0.0728 0
M  V30 85 H -3.5006 1.0131 3.6951 0
M  V30 86 H 1.3297 -2.9614 -1.7824 0
M  V30 87 H 2.8386 -2.9158 0.9263 0
M  V30 88 H 3.1252 -1.0099 2.2811 0
M  V30 89 H 2.265 0.4454 1.8483 0
M  V30 90 H 1.155 -2.4982 2.2812 0
M  V30 91 H 0.206 -1.0359 2.0946 0
M  V30 92 H -0.02 -2.417 0.9932 0
M  V30 93 H 3.7862 0.7097 -0.1587 0
M  V30 94 H -5.6443 -0.1803 1.8462 0
M  V30 95 H -5.6613 2.2335 3.7206 0
M  V30 96 H -5.6224 2.3312 1.9437 0
M  V30 97 H -4.3927 3.1571 2.8877 0
M  V30 98 H -2.5858 -2.7297 3.5286 0
M  V30 99 H -3.9044 -2.179 4.5384 0
M  V30 100 H -2.616 -1.0517 4.0907 0
M  V30 101 H -1.0504 -3.6047 -1.9859 0
M  V30 102 H 4.628 -1.4902 -0.6653 0
M  V30 103 H 5.1822 -1.7463 1.0043 0
M  V30 104 H 5.9978 -0.5827 -0.0397 0
M  V30 105 H -6.106 -1.3662 3.7892 0
M  V30 106 H -5.9103 -1.9767 0.5842 0
M  V30 107 H -4.6427 -3.2129 0.2716 0
M  V30 108 H -6.1682 -3.6706 1.0311 0
M  V30 109 H 2.1593 -1.7393 -5.1541 0
M  V30 110 H 0.6839 -4.6912 -3.3084 0
M  V30 111 H 0.0534 -2.6874 -5.5224 0
M  V30 112 H 1.1965 -4.0216 -5.6694 0
M  V30 113 H 3.7894 -2.4756 -3.4503 0
M  V30 114 H 3.5423 -3.6984 -4.7172 0
M  V30 115 H 2.8362 -3.9097 -3.1091 0
M  V30 116 H -3.7497 -1.064 -4.3562 0
M  V30 117 H -2.6042 0.0976 -3.6385 0
M  V30 118 H 0.1535 -6.1271 -5.7157 0
M  V30 119 H 0.1317 -6.7414 -4.0478 0
M  V30 120 H -1.2562 -7.001 -5.0858 0
M  V30 121 H -1.4603 -4.2628 -6.3131 0
M  V30 122 H -2.498 -3.5962 -5.0356 0
M  V30 123 H -2.7596 -5.2239 -5.5984 0
M  V30 124 H -4.9379 0.7068 -3.0732 0
M  V30 125 H -4.0328 0.2773 -1.6112 0
M  V30 126 H -5.1846 -0.8725 -2.305 0
M  V30 END ATOM
M  V30 BEGIN BOND
M  V30 1 2 1 2
M  V30 2 1 2 3
M  V30 3 1 2 4
M  V30 4 1 3 5
M  V30 5 1 4 6
M  V30 6 1 4 7
M  V30 7 1 5 8
M  V30 8 1 5 9
M  V30 9 1 6 10
M  V30 10 1 6 11
M  V30 11 1 8 12
M  V30 12 1 8 13
M  V30 13 1 8 14
M  V30 14 1 9 15
M  V30 15 1 10 16
M  V30 16 1 11 17
M  V30 17 1 11 18
M  V30 18 1 13 19
M  V30 19 1 13 20
M  V30 20 1 16 21
M  V30 21 1 16 22
M  V30 22 1 17 23
M  V30 23 1 17 24
M  V30 24 1 20 25
M  V30 25 1 20 26
M  V30 26 1 21 27
M  V30 27 1 22 28
M  V30 28 1 23 29
M  V30 29 1 24 30
M  V30 30 1 24 31
M  V30 31 1 24 32
M  V30 32 2 25 33
M  V30 33 1 25 34
M  V30 34 1 27 35
M  V30 35 1 27 36
M  V30 36 1 28 37
M  V30 37 1 28 38
M  V30 38 1 29 39
M  V30 39 1 29 40
M  V30 40 1 34 41
M  V30 41 1 35 42
M  V30 42 1 37 43
M  V30 43 1 39 44
M  V30 44 1 40 45
M  V30 45 1 40 46
M  V30 46 1 44 47
M  V30 47 1 44 48
M  V30 48 1 45 49
M  V30 49 1 46 50
M  V30 50 2 49 51
M  V30 51 1 49 52
M  V30 52 1 50 53
M  V30 53 1 50 54
M  V30 54 1 52 55
M  V30 55 1 28 35
M  V30 56 1 31 34
M  V30 57 1 46 47
M  V30 58 1 4 56
M  V30 59 1 5 57
M  V30 60 1 6 58
M  V30 61 1 7 59
M  V30 62 1 7 60
M  V30 63 1 7 61
M  V30 64 1 9 62
M  V30 65 1 9 63
M  V30 66 1 11 64
M  V30 67 1 12 65
M  V30 68 1 13 66
M  V30 69 1 14 67
M  V30 70 1 14 68
M  V30 71 1 14 69
M  V30 72 1 15 70
M  V30 73 1 15 71
M  V30 74 1 15 72
M  V30 75 1 16 73
M  V30 76 1 17 74
M  V30 77 1 18 75
M  V30 78 1 18 76
M  V30 79 1 18 77
M  V30 80 1 19 78
M  V30 81 1 20 79
M  V30 82 1 22 80
M  V30 83 1 22 81
M  V30 84 1 26 82
M  V30 85 1 26 83
M  V30 86 1 26 84
M  V30 87 1 27 85
M  V30 88 1 29 86
M  V30 89 1 30 87
M  V30 90 1 31 88
M  V30 91 1 31 89
M  V30 92 1 32 90
M  V30 93 1 32 91
M  V30 94 1 32 92
M  V30 95 1 34 93
M  V30 96 1 35 94
M  V30 97 1 36 95
M  V30 98 1 36 96
M  V30 99 1 36 97
M  V30 100 1 38 98
M  V30 101 1 38 99
M  V30 102 1 38 100
M  V30 103 1 40 101
M  V30 104 1 41 102
M  V30 105 1 41 103
M  V30 106 1 41 104
M  V30 107 1 42 105
M  V30 108 1 43 106
M  V30 109 1 43 107
M  V30 110 1 43 108
M  V30 111 1 44 109
M  V30 112 1 46 110
M  V30 113 1 47 111
M  V30 114 1 47 112
M  V30 115 1 48 113
M  V30 116 1 48 114
M  V30 117 1 48 115
M  V30 118 1 52 116
M  V30 119 1 52 117
M  V30 120 1 53 118
M  V30 121 1 53 119
M  V30 122 1 53 120
M  V30 123 1 54 121
M  V30 124 1 54 122
M  V30 125 1 54 123
M  V30 126 1 55 124
M  V30 127 1 55 125
M  V30 128 1 55 126
M  V30 END BOND
M  V30 BEGIN COLLECTION
M  V30 MDLV30/STEABS ATOMS=(14 4 5 6 13 16 17 20 27 29 34 35 40 44 46)
M  V30 END COLLECTION
M  V30 END CTAB
M  END
>  <level_0>
2968

>  <index>
2968

>  <NO.>
2969

>  <Name>


>  <SMILES>
CCC(=O)O[C@@H]1[C@H](O[C@H]2C(C)[C@H](O[C@@H]3CC(C)(OC)[C@@H](O)[C@H](C)O3)[C@H](C)C(=O)O[C@@H](CC)C(C)(O)[C@@H](O)[C@H](C)C(=O)[C@@H](C)CC2(C)O)O[C@@H](C)C[C@@H]1N(C)C

>  <logBB>


>  <Class>
-1

>  <MW>
789.49

>  <nHBAcc>
15

>  <nHBDon>
4

>  <SLogP>
2.75

>  <TopoPSA>
199.98

>  <MMFF94 Energy>
188.99

$$$$
CCCC(=O)OCC(=O)C1(OC(=O)CCC)[C@@H](C)C[C@H]2[C@@H]3CCC4=CC(=O)C=CC4(C)C3(Cl)[C@@H](Cl)CC21C
Actelion Java MolfileCreator 2.0

  0  0  0  0  0  0              0 V3000
M  V30 BEGIN CTAB
M  V30 COUNTS 78 81 0 0 0
M  V30 BEGIN ATOM
M  V30 1 Cl 1.2193 3.4168 1.3819 0
M  V30 2 C -0.0995 2.4588 2.3303 0
M  V30 3 C -0.495 3.3806 3.5833 0
M  V30 4 C 0.5995 1.0801 2.6332 0 CFG=1
M  V30 5 C -1.331 2.278 1.3549 0 CFG=2
M  V30 6 C -1.102 4.6906 3.0369 0
M  V30 7 C 0.7125 3.6629 4.4768 0
M  V30 8 C -1.5743 2.7924 4.5287 0
M  V30 9 Cl -0.1963 0.0773 3.8879 0
M  V30 10 C 0.8275 0.1989 1.3712 0
M  V30 11 C -0.934 1.4488 0.117 0 CFG=1
M  V30 12 C -1.953 3.6266 0.9298 0
M  V30 13 C -0.6182 5.9113 3.3294 0
M  V30 14 C -2.2826 4.5333 2.1119 0
M  V30 15 C 1.1859 4.8835 4.7634 0
M  V30 16 C -0.4111 0.0345 0.4491 0
M  V30 17 C -1.9793 1.1755 -0.954 0
M  V30 18 C 0.5514 6.0972 4.2135 0
M  V30 19 C -0.1274 -0.5172 -1.0138 0
M  V30 20 C -1.4815 -0.8654 1.125 0
M  V30 21 C -1.3044 0.1088 -1.8653 0 CFG=1
M  V30 22 O 0.9736 7.2143 4.4836 0
M  V30 23 O 1.1032 0.1502 -1.4656 0
M  V30 24 C 0.2509 -2.0278 -0.9291 0
M  V30 25 C -2.3763 -0.7664 -2.4946 0
M  V30 26 C 1.6041 -0.2293 -2.6768 0
M  V30 27 O 1.3273 -2.3526 -0.4051 0
M  V30 28 C -0.6915 -3.089 -1.4637 0
M  V30 29 O 1.0534 -1.0186 -3.4311 0
M  V30 30 C 2.909 0.4837 -2.9312 0
M  V30 31 O -0.2099 -4.3962 -1.1336 0
M  V30 32 C 3.5348 0.0652 -4.2586 0
M  V30 33 C -1.0414 -5.4003 -1.514 0
M  V30 34 C 4.8515 0.7832 -4.5048 0
M  V30 35 O -2.1247 -5.2438 -2.061 0
M  V30 36 C -0.4426 -6.7406 -1.1792 0
M  V30 37 C 0.6196 -7.1274 -2.1996 0
M  V30 38 C 1.2098 -8.4947 -1.898 0
M  V30 39 H 1.5882 1.2758 3.0648 0
M  V30 40 H -2.1173 1.7372 1.8914 0
M  V30 41 H 1.214 2.8088 4.9281 0
M  V30 42 H -1.1583 2.1121 5.2784 0
M  V30 43 H -2.0678 3.5837 5.1105 0
M  V30 44 H -2.364 2.2593 3.9919 0
M  V30 45 H 1.6488 0.6531 0.8045 0
M  V30 46 H 1.2063 -0.7855 1.6729 0
M  V30 47 H -0.1422 2.0088 -0.3993 0
M  V30 48 H -2.88 3.4449 0.3723 0
M  V30 49 H -1.2846 4.1567 0.24 0
M  V30 50 H -1.0469 6.8252 2.9339 0
M  V30 51 H -2.6186 5.5046 1.7282 0
M  V30 52 H -3.1312 4.1193 2.6692 0
M  V30 53 H 2.0422 5.0402 5.4085 0
M  V30 54 H -2.9146 0.8101 -0.5149 0
M  V30 55 H -2.2192 2.0758 -1.5305 0
M  V30 56 H -1.9978 -0.3744 1.9508 0
M  V30 57 H -1.0285 -1.7839 1.515 0
M  V30 58 H -2.2695 -1.175 0.4341 0
M  V30 59 H -0.8628 0.6763 -2.6963 0
M  V30 60 H -2.9201 -1.3614 -1.758 0
M  V30 61 H -1.956 -1.4213 -3.2607 0
M  V30 62 H -3.1199 -0.1397 -3.0019 0
M  V30 63 H -1.669 -2.9555 -0.9971 0
M  V30 64 H -0.7282 -3.0044 -2.5515 0
M  V30 65 H 3.5933 0.2472 -2.1086 0
M  V30 66 H 2.7138 1.5619 -2.9349 0
M  V30 67 H 3.7057 -1.0179 -4.2665 0
M  V30 68 H 2.8445 0.2822 -5.0826 0
M  V30 69 H 5.2818 0.4688 -5.4607 0
M  V30 70 H 4.7066 1.8678 -4.5376 0
M  V30 71 H 5.5753 0.5567 -3.7154 0
M  V30 72 H -1.2531 -7.4787 -1.1626 0
M  V30 73 H -0.0319 -6.7029 -0.1637 0
M  V30 74 H 0.1854 -7.1322 -3.2066 0
M  V30 75 H 1.4225 -6.3806 -2.2084 0
M  V30 76 H 1.97 -8.752 -2.642 0
M  V30 77 H 1.6823 -8.5086 -0.9106 0
M  V30 78 H 0.4367 -9.2694 -1.9204 0
M  V30 END ATOM
M  V30 BEGIN BOND
M  V30 1 1 1 2
M  V30 2 1 2 3
M  V30 3 1 2 4
M  V30 4 1 2 5
M  V30 5 1 3 6
M  V30 6 1 3 7
M  V30 7 1 3 8
M  V30 8 1 4 9
M  V30 9 1 4 10
M  V30 10 1 5 11
M  V30 11 1 5 12
M  V30 12 2 6 13
M  V30 13 1 6 14
M  V30 14 2 7 15
M  V30 15 1 10 16
M  V30 16 1 11 17
M  V30 17 1 13 18
M  V30 18 1 16 19
M  V30 19 1 16 20
M  V30 20 1 17 21
M  V30 21 2 18 22
M  V30 22 1 19 23
M  V30 23 1 19 24
M  V30 24 1 21 25
M  V30 25 1 23 26
M  V30 26 2 24 27
M  V30 27 1 24 28
M  V30 28 2 26 29
M  V30 29 1 26 30
M  V30 30 1 28 31
M  V30 31 1 30 32
M  V30 32 1 31 33
M  V30 33 1 32 34
M  V30 34 2 33 35
M  V30 35 1 33 36
M  V30 36 1 36 37
M  V30 37 1 37 38
M  V30 38 1 11 16
M  V30 39 1 12 14
M  V30 40 1 15 18
M  V30 41 1 19 21
M  V30 42 1 4 39
M  V30 43 1 5 40
M  V30 44 1 7 41
M  V30 45 1 8 42
M  V30 46 1 8 43
M  V30 47 1 8 44
M  V30 48 1 10 45
M  V30 49 1 10 46
M  V30 50 1 11 47
M  V30 51 1 12 48
M  V30 52 1 12 49
M  V30 53 1 13 50
M  V30 54 1 14 51
M  V30 55 1 14 52
M  V30 56 1 15 53
M  V30 57 1 17 54
M  V30 58 1 17 55
M  V30 59 1 20 56
M  V30 60 1 20 57
M  V30 61 1 20 58
M  V30 62 1 21 59
M  V30 63 1 25 60
M  V30 64 1 25 61
M  V30 65 1 25 62
M  V30 66 1 28 63
M  V30 67 1 28 64
M  V30 68 1 30 65
M  V30 69 1 30 66
M  V30 70 1 32 67
M  V30 71 1 32 68
M  V30 72 1 34 69
M  V30 73 1 34 70
M  V30 74 1 34 71
M  V30 75 1 36 72
M  V30 76 1 36 73
M  V30 77 1 37 74
M  V30 78 1 37 75
M  V30 79 1 38 76
M  V30 80 1 38 77
M  V30 81 1 38 78
M  V30 END BOND
M  V30 BEGIN COLLECTION
M  V30 MDLV30/STEABS ATOMS=(4 4 5 11 21)
M  V30 END COLLECTION
M  V30 END CTAB
M  END
>  <level_0>
2998

>  <index>
2998

>  <NO.>
2999

>  <Name>


>  <SMILES>
CCCC(=O)OCC(=O)C1(OC(=O)CCC)[C@@H](C)C[C@H]2[C@@H]3CCC4=CC(=O)C=CC4(C)C3(Cl)[C@@H](Cl)CC21C

>  <logBB>


>  <Class>
1

>  <MW>
566.22

>  <nHBAcc>
6

>  <nHBDon>
0

>  <SLogP>
6.11

>  <TopoPSA>
86.74

>  <MMFF94 Energy>
130.43

$$$$
CCN(CC)C/C=C(\O)N1c2ccccc2Sc2ccc(C(F)(F)F)cc21
Actelion Java MolfileCreator 2.0

  0  0  0  0  0  0              0 V3000
M  V30 BEGIN CTAB
M  V30 COUNTS 48 50 0 0 0
M  V30 BEGIN ATOM
M  V30 1 S 0.0 3.0016 3.4077 0
M  V30 2 C -0.3596 3.1601 1.678 0
M  V30 3 C 0.7657 1.4035 3.4987 0
M  V30 4 C -0.1927 2.1238 0.7448 0
M  V30 5 C -0.8537 4.4137 1.2688 0
M  V30 6 C 0.8446 0.5098 2.4166 0
M  V30 7 C 1.3005 1.0523 4.7541 0
M  V30 8 N 0.2929 0.8174 1.1188 0
M  V30 9 C -0.5294 2.4109 -0.6021 0
M  V30 10 C -1.1829 4.6635 -0.0622 0
M  V30 11 C 1.4993 -0.7249 2.6501 0
M  V30 12 C 1.9288 -0.1738 4.9538 0
M  V30 13 C 0.1878 -0.219 0.1822 0
M  V30 14 C -1.0287 3.6585 -1.0154 0
M  V30 15 C 2.0321 -1.0637 3.8972 0
M  V30 16 O 1.2435 -0.3404 -0.6998 0
M  V30 17 C -0.87 -1.0512 0.121 0
M  V30 18 C -1.3491 3.906 -2.4676 0
M  V30 19 C -1.134 -2.1929 -0.8197 0
M  V30 20 F -0.2608 4.3044 -3.1813 0
M  V30 21 F -1.832 2.8018 -3.1043 0
M  V30 22 F -2.29 4.8755 -2.6495 0
M  V30 23 N -0.0681 -2.3926 -1.8282 0
M  V30 24 C -0.584 -2.1894 -3.2004 0
M  V30 25 C 0.5248 -3.7434 -1.7211 0
M  V30 26 C -0.939 -0.7334 -3.491 0
M  V30 27 C 1.3571 -3.9205 -0.4537 0
M  V30 28 H -0.9832 5.2141 1.9962 0
M  V30 29 H 1.2325 1.7447 5.5915 0
M  V30 30 H -0.3892 1.6506 -1.3693 0
M  V30 31 H -1.5568 5.6457 -0.3469 0
M  V30 32 H 1.623 -1.4458 1.8455 0
M  V30 33 H 2.3402 -0.4254 5.9274 0
M  V30 34 H 2.5306 -2.0199 4.0321 0
M  V30 35 H 1.0153 -1.0971 -1.2842 0
M  V30 36 H -1.6624 -0.8902 0.8509 0
M  V30 37 H -1.2873 -3.0933 -0.2113 0
M  V30 38 H -2.1082 -2.0178 -1.2942 0
M  V30 39 H 0.1914 -2.4703 -3.9242 0
M  V30 40 H -1.4499 -2.8348 -3.3952 0
M  V30 41 H -0.2482 -4.5199 -1.7781 0
M  V30 42 H 1.2058 -3.9092 -2.5655 0
M  V30 43 H -1.2527 -0.6291 -4.535 0
M  V30 44 H -0.0738 -0.0801 -3.3379 0
M  V30 45 H -1.7591 -0.3721 -2.8637 0
M  V30 46 H 1.8319 -4.9072 -0.4564 0
M  V30 47 H 0.7517 -3.849 0.4545 0
M  V30 48 H 2.1519 -3.1693 -0.3972 0
M  V30 END ATOM
M  V30 BEGIN BOND
M  V30 1 1 1 2
M  V30 2 1 1 3
M  V30 3 2 2 4
M  V30 4 1 2 5
M  V30 5 2 3 6
M  V30 6 1 3 7
M  V30 7 1 4 8
M  V30 8 1 4 9
M  V30 9 2 5 10
M  V30 10 1 6 11
M  V30 11 2 7 12
M  V30 12 1 8 13
M  V30 13 2 9 14
M  V30 14 2 11 15
M  V30 15 1 13 16
M  V30 16 2 13 17
M  V30 17 1 14 18
M  V30 18 1 17 19
M  V30 19 1 18 20
M  V30 20 1 18 21
M  V30 21 1 18 22
M  V30 22 1 19 23
M  V30 23 1 23 24
M  V30 24 1 23 25
M  V30 25 1 24 26
M  V30 26 1 25 27
M  V30 27 1 6 8
M  V30 28 1 10 14
M  V30 29 1 12 15
M  V30 30 1 5 28
M  V30 31 1 7 29
M  V30 32 1 9 30
M  V30 33 1 10 31
M  V30 34 1 11 32
M  V30 35 1 12 33
M  V30 36 1 15 34
M  V30 37 1 16 35
M  V30 38 1 17 36
M  V30 39 1 19 37
M  V30 40 1 19 38
M  V30 41 1 24 39
M  V30 42 1 24 40
M  V30 43 1 25 41
M  V30 44 1 25 42
M  V30 45 1 26 43
M  V30 46 1 26 44
M  V30 47 1 26 45
M  V30 48 1 27 46
M  V30 49 1 27 47
M  V30 50 1 27 48
M  V30 END BOND
M  V30 END CTAB
M  END
>  <level_0>
3069

>  <index>
3069

>  <NO.>
3070

>  <Name>


>  <SMILES>
CCN(CC)C/C=C(\O)N1c2ccccc2Sc2ccc(C(F)(F)F)cc21

>  <logBB>


>  <Class>
1

>  <MW>
394.13

>  <nHBAcc>
4

>  <nHBDon>
1

>  <SLogP>
6.05

>  <TopoPSA>
26.71

>  <MMFF94 Energy>
57.181

$$$$
CCN1CCN(C(=O)N[C@H](C(=O)NC2C(=O)N3C(C(=O)O)=C(CSc4nnnn4C)CS[C@@H]23)c2ccc(O)cc2)C(=O)C1=O
Actelion Java MolfileCreator 2.0

  0  0  0  0  0  0              0 V3000
M  V30 BEGIN CTAB
M  V30 COUNTS 71 75 0 0 0
M  V30 BEGIN ATOM
M  V30 1 S -1.6335 3.7601 0.6531 0
M  V30 2 C -2.5803 2.5879 1.6591 0 CFG=2
M  V30 3 C -1.5231 4.9868 2.0011 0
M  V30 4 N -1.7701 2.2149 2.7923 0
M  V30 5 C -2.5458 1.0841 1.2461 0
M  V30 6 C -1.0436 4.4009 3.3179 0
M  V30 7 C -1.1659 3.0898 3.6332 0
M  V30 8 C -1.9241 0.8793 2.6851 0
M  V30 9 N -1.6515 0.7211 0.1107 0
M  V30 10 C -0.4038 5.4203 4.2382 0
M  V30 11 C -0.5604 2.5456 4.8745 0
M  V30 12 O -1.6224 -0.0352 3.4118 0
M  V30 13 C -1.573 -0.5675 -0.3684 0
M  V30 14 S 1.3638 5.5755 3.8378 0
M  V30 15 O -0.9394 2.7657 6.0099 0
M  V30 16 O 0.5097 1.7843 4.5945 0
M  V30 17 O -2.2839 -1.4791 0.0583 0
M  V30 18 C -0.5569 -0.78 -1.5125 0 CFG=1
M  V30 19 C 1.8135 6.8461 4.9136 0
M  V30 20 N -0.2374 -2.1978 -1.5681 0
M  V30 21 C -1.0905 -0.304 -2.8532 0
M  V30 22 N 1.014 7.6107 5.6204 0
M  V30 23 N 3.1015 7.2259 5.1508 0
M  V30 24 C 0.9896 -2.6483 -1.9817 0
M  V30 25 C -0.2343 0.3724 -3.7391 0
M  V30 26 C -2.4099 -0.5649 -3.2607 0
M  V30 27 N 1.8343 8.4768 6.3055 0
M  V30 28 N 3.1112 8.2498 6.023 0
M  V30 29 C 4.3282 6.6998 4.6223 0
M  V30 30 O 1.8726 -1.859 -2.3055 0
M  V30 31 N 1.0945 -4.0197 -2.0948 0
M  V30 32 C -0.6908 0.8039 -4.9868 0
M  V30 33 C -2.8666 -0.1306 -4.5064 0
M  V30 34 C 2.329 -4.6324 -1.8646 0
M  V30 35 C -0.0593 -4.8498 -2.4132 0
M  V30 36 C -2.0063 0.5511 -5.3575 0
M  V30 37 O 3.3434 -4.0709 -1.467 0
M  V30 38 C 2.3926 -6.1682 -2.098 0
M  V30 39 C 0.3247 -5.9153 -3.4281 0
M  V30 40 O -2.4941 0.952 -6.5656 0
M  V30 41 O 3.2805 -6.8278 -1.5711 0
M  V30 42 N 1.4042 -6.7317 -2.9076 0
M  V30 43 C 1.4625 -8.145 -3.2583 0
M  V30 44 C 0.6149 -8.9907 -2.3221 0
M  V30 45 H -3.5797 2.9386 1.9452 0
M  V30 46 H -0.8316 5.7595 1.6503 0
M  V30 47 H -2.5015 5.4589 2.1431 0
M  V30 48 H -3.5444 0.647 1.1332 0
M  V30 49 H -1.0604 1.4388 -0.3026 0
M  V30 50 H -0.9035 6.3883 4.1126 0
M  V30 51 H -0.5143 5.1517 5.2927 0
M  V30 52 H 0.7697 1.3952 5.4544 0
M  V30 53 H 0.3488 -0.2201 -1.246 0
M  V30 54 H -0.8737 -2.813 -1.0773 0
M  V30 55 H 0.8061 0.5499 -3.4667 0
M  V30 56 H -3.0956 -1.112 -2.616 0
M  V30 57 H 5.175 7.2432 5.0504 0
M  V30 58 H 4.4008 5.6426 4.889 0
M  V30 59 H 4.3246 6.8252 3.5368 0
M  V30 60 H -0.0059 1.3217 -5.651 0
M  V30 61 H -3.8894 -0.3292 -4.8148 0
M  V30 62 H -0.8768 -4.2454 -2.8197 0
M  V30 63 H -0.3995 -5.312 -1.4784 0
M  V30 64 H 0.6725 -5.4648 -4.3645 0
M  V30 65 H -0.5411 -6.5495 -3.6448 0
M  V30 66 H -1.7825 1.3985 -7.0535 0
M  V30 67 H 2.5011 -8.4901 -3.2101 0
M  V30 68 H 1.1269 -8.2599 -4.2949 0
M  V30 69 H -0.4374 -8.6914 -2.3612 0
M  V30 70 H 0.9524 -8.8862 -1.2856 0
M  V30 71 H 0.6801 -10.0472 -2.5996 0
M  V30 END ATOM
M  V30 BEGIN BOND
M  V30 1 1 1 2
M  V30 2 1 1 3
M  V30 3 1 2 4
M  V30 4 1 2 5
M  V30 5 1 3 6
M  V30 6 1 4 7
M  V30 7 1 4 8
M  V30 8 1 5 9
M  V30 9 1 6 10
M  V30 10 1 7 11
M  V30 11 2 8 12
M  V30 12 1 9 13
M  V30 13 1 10 14
M  V30 14 2 11 15
M  V30 15 1 11 16
M  V30 16 2 13 17
M  V30 17 1 13 18
M  V30 18 1 14 19
M  V30 19 1 18 20
M  V30 20 1 18 21
M  V30 21 2 19 22
M  V30 22 1 19 23
M  V30 23 1 20 24
M  V30 24 2 21 25
M  V30 25 1 21 26
M  V30 26 1 22 27
M  V30 27 1 23 28
M  V30 28 1 23 29
M  V30 29 2 24 30
M  V30 30 1 24 31
M  V30 31 1 25 32
M  V30 32 2 26 33
M  V30 33 1 31 34
M  V30 34 1 31 35
M  V30 35 2 32 36
M  V30 36 2 34 37
M  V30 37 1 34 38
M  V30 38 1 35 39
M  V30 39 1 36 40
M  V30 40 2 38 41
M  V30 41 1 38 42
M  V30 42 1 42 43
M  V30 43 1 43 44
M  V30 44 1 5 8
M  V30 45 2 6 7
M  V30 46 2 27 28
M  V30 47 1 33 36
M  V30 48 1 39 42
M  V30 49 1 2 45
M  V30 50 1 3 46
M  V30 51 1 3 47
M  V30 52 1 5 48
M  V30 53 1 9 49
M  V30 54 1 10 50
M  V30 55 1 10 51
M  V30 56 1 16 52
M  V30 57 1 18 53
M  V30 58 1 20 54
M  V30 59 1 25 55
M  V30 60 1 26 56
M  V30 61 1 29 57
M  V30 62 1 29 58
M  V30 63 1 29 59
M  V30 64 1 32 60
M  V30 65 1 33 61
M  V30 66 1 35 62
M  V30 67 1 35 63
M  V30 68 1 39 64
M  V30 69 1 39 65
M  V30 70 1 40 66
M  V30 71 1 43 67
M  V30 72 1 43 68
M  V30 73 1 44 69
M  V30 74 1 44 70
M  V30 75 1 44 71
M  V30 END BOND
M  V30 BEGIN COLLECTION
M  V30 MDLV30/STEABS ATOMS=(2 2 18)
M  V30 END COLLECTION
M  V30 END CTAB
M  END
>  <level_0>
3082

>  <index>
3082

>  <NO.>
3083

>  <Name>


>  <SMILES>
CCN1CCN(C(=O)N[C@H](C(=O)NC2C(=O)N3C(C(=O)O)=C(CSc4nnnn4C)CS[C@@H]23)c2ccc(O)cc2)C(=O)C1=O

>  <logBB>


>  <Class>
1

>  <MW>
645.14

>  <nHBAcc>
12

>  <nHBDon>
4

>  <SLogP>
-1.11

>  <TopoPSA>
220.26

>  <MMFF94 Energy>
20.759

$$$$
CCN1CCN(C(=O)N[C@H](C(=O)NC2C(=O)N3[C@H]2SC(C)(C)[C@@H]3C(=O)O)c2ccccc2)C(=O)C1=O
Actelion Java MolfileCreator 2.0

  0  0  0  0  0  0              0 V3000
M  V30 BEGIN CTAB
M  V30 COUNTS 63 66 0 0 0
M  V30 BEGIN ATOM
M  V30 1 S -2.756 3.5677 2.5938 0
M  V30 2 C -4.1763 2.4179 3.0364 0
M  V30 3 C -2.1427 2.5223 1.1959 0 CFG=2
M  V30 4 C -4.3382 1.5206 1.7909 0 CFG=1
M  V30 5 C -3.7834 1.7032 4.3358 0
M  V30 6 C -5.4122 3.2946 3.2742 0
M  V30 7 N -3.006 1.3384 1.2408 0
M  V30 8 C -0.9446 1.5963 1.5412 0
M  V30 9 C -5.1271 0.2162 1.894 0
M  V30 10 C -2.0448 0.525 1.7608 0
M  V30 11 N -4.0E-4 1.2847 0.4383 0
M  V30 12 O -5.0808 -0.719 1.1087 0
M  V30 13 O -6.0337 0.188 2.8888 0
M  V30 14 O -2.1099 -0.5687 2.2697 0
M  V30 15 C 0.7309 2.2644 -0.2017 0
M  V30 16 O 0.5766 3.456 0.0631 0
M  V30 17 C 1.6417 1.7616 -1.3539 0 CFG=1
M  V30 18 N 1.8902 0.3231 -1.2878 0
M  V30 19 C 1.0558 2.1289 -2.7073 0
M  V30 20 C 2.7999 -0.2222 -0.4282 0
M  V30 21 C 1.7319 3.0321 -3.5423 0
M  V30 22 C -0.1601 1.5813 -3.1522 0
M  V30 23 O 3.3951 0.4743 0.3909 0
M  V30 24 N 2.9779 -1.5991 -0.5175 0
M  V30 25 C 1.2072 3.3771 -4.7892 0
M  V30 26 C -0.6807 1.9271 -4.4003 0
M  V30 27 C 2.2109 -2.4478 -1.3297 0
M  V30 28 C 3.9619 -2.1962 0.3768 0
M  V30 29 C 0.0025 2.8242 -5.2178 0
M  V30 30 O 1.3606 -2.0543 -2.1247 0
M  V30 31 C 2.4898 -3.9688 -1.2228 0
M  V30 32 C 4.694 -3.3411 -0.3063 0
M  V30 33 O 1.6185 -4.764 -1.5499 0
M  V30 34 N 3.7453 -4.3456 -0.751 0
M  V30 35 C 4.1239 -5.7524 -0.7126 0
M  V30 36 C 3.8693 -6.3648 0.6548 0
M  V30 37 H -2.1407 3.0091 0.217 0
M  V30 38 H -4.8793 2.0924 1.0219 0
M  V30 39 H -4.5794 1.0411 4.6893 0
M  V30 40 H -3.6013 2.4228 5.1439 0
M  V30 41 H -2.879 1.0978 4.2334 0
M  V30 42 H -6.2816 2.6868 3.5457 0
M  V30 43 H -5.6837 3.8689 2.3807 0
M  V30 44 H -5.2515 4.0065 4.0927 0
M  V30 45 H -0.4008 1.8436 2.4598 0
M  V30 46 H 0.1599 0.3247 0.1501 0
M  V30 47 H -6.4499 -0.6961 2.7894 0
M  V30 48 H 2.6072 2.2654 -1.2157 0
M  V30 49 H 1.4681 -0.2803 -1.9924 0
M  V30 50 H 2.6719 3.4799 -3.2255 0
M  V30 51 H -0.7138 0.8775 -2.5337 0
M  V30 52 H 1.7384 4.0803 -5.4257 0
M  V30 53 H -1.6207 1.4952 -4.735 0
M  V30 54 H 3.4166 -2.5616 1.2561 0
M  V30 55 H 4.6896 -1.4532 0.7189 0
M  V30 56 H -0.4047 3.0939 -6.1887 0
M  V30 57 H 5.4064 -3.7943 0.3908 0
M  V30 58 H 5.2415 -2.9905 -1.1883 0
M  V30 59 H 5.1821 -5.835 -0.9838 0
M  V30 60 H 3.5485 -6.3044 -1.4639 0
M  V30 61 H 2.8108 -6.2922 0.9259 0
M  V30 62 H 4.4475 -5.8541 1.4315 0
M  V30 63 H 4.1525 -7.4217 0.6572 0
M  V30 END ATOM
M  V30 BEGIN BOND
M  V30 1 1 1 2
M  V30 2 1 1 3
M  V30 3 1 2 4
M  V30 4 1 2 5
M  V30 5 1 2 6
M  V30 6 1 3 7
M  V30 7 1 3 8
M  V30 8 1 4 9
M  V30 9 1 7 10
M  V30 10 1 8 11
M  V30 11 2 9 12
M  V30 12 1 9 13
M  V30 13 2 10 14
M  V30 14 1 11 15
M  V30 15 2 15 16
M  V30 16 1 15 17
M  V30 17 1 17 18
M  V30 18 1 17 19
M  V30 19 1 18 20
M  V30 20 2 19 21
M  V30 21 1 19 22
M  V30 22 2 20 23
M  V30 23 1 20 24
M  V30 24 1 21 25
M  V30 25 2 22 26
M  V30 26 1 24 27
M  V30 27 1 24 28
M  V30 28 2 25 29
M  V30 29 2 27 30
M  V30 30 1 27 31
M  V30 31 1 28 32
M  V30 32 2 31 33
M  V30 33 1 31 34
M  V30 34 1 34 35
M  V30 35 1 35 36
M  V30 36 1 4 7
M  V30 37 1 8 10
M  V30 38 1 26 29
M  V30 39 1 32 34
M  V30 40 1 3 37
M  V30 41 1 4 38
M  V30 42 1 5 39
M  V30 43 1 5 40
M  V30 44 1 5 41
M  V30 45 1 6 42
M  V30 46 1 6 43
M  V30 47 1 6 44
M  V30 48 1 8 45
M  V30 49 1 11 46
M  V30 50 1 13 47
M  V30 51 1 17 48
M  V30 52 1 18 49
M  V30 53 1 21 50
M  V30 54 1 22 51
M  V30 55 1 25 52
M  V30 56 1 26 53
M  V30 57 1 28 54
M  V30 58 1 28 55
M  V30 59 1 29 56
M  V30 60 1 32 57
M  V30 61 1 32 58
M  V30 62 1 35 59
M  V30 63 1 35 60
M  V30 64 1 36 61
M  V30 65 1 36 62
M  V30 66 1 36 63
M  V30 END BOND
M  V30 BEGIN COLLECTION
M  V30 MDLV30/STEABS ATOMS=(3 3 4 17)
M  V30 END COLLECTION
M  V30 END CTAB
M  END
>  <level_0>
3083

>  <index>
3083

>  <NO.>
3084

>  <Name>


>  <SMILES>
CCN1CCN(C(=O)N[C@H](C(=O)NC2C(=O)N3[C@H]2SC(C)(C)[C@@H]3C(=O)O)c2ccccc2)C(=O)C1=O

>  <logBB>


>  <Class>
-1

>  <MW>
517.16

>  <nHBAcc>
7

>  <nHBDon>
3

>  <SLogP>
-0.24

>  <TopoPSA>
156.43

>  <MMFF94 Energy>
53.568

$$$$
CCOC(=O)CCC(=O)O[C@@H]1[C@H](O[C@H]2[C@@H](C)[C@H](O[C@@H]3CC(C)(OC)[C@@H](O)[C@H](C)O3)[C@H](C)C(=O)O[C@@H](CC)C(C)(O)[C@@H](O)[C@H](C)C(=O)[C@@H](C)CC2(C)O)O[C@@H](C)C[C@@H]1N(C)C
Actelion Java MolfileCreator 2.0

  0  0  0  0  0  0              0 V3000
M  V30 BEGIN CTAB
M  V30 COUNTS 135 137 0 0 0
M  V30 BEGIN ATOM
M  V30 1 O 0.3164 -0.9494 -2.4542 0
M  V30 2 C 0.8358 -1.4542 -1.4673 0
M  V30 3 O 0.9231 -2.7972 -1.2501 0
M  V30 4 C 1.4763 -0.6734 -0.3319 0 CFG=2
M  V30 5 C 0.4189 -3.6798 -2.2905 0 CFG=2
M  V30 6 C 0.4732 -0.3269 0.8023 0 CFG=1
M  V30 7 C 2.2734 0.5135 -0.8749 0
M  V30 8 C -0.5133 -4.7804 -1.6702 0
M  V30 9 C 1.64 -4.1831 -3.0897 0
M  V30 10 O 1.241 -0.3047 2.0291 0
M  V30 11 C -0.2517 1.0566 0.7326 0 CFG=1
M  V30 12 O 0.2753 -5.5254 -0.7086 0
M  V30 13 C -1.7103 -4.2096 -0.8353 0 CFG=1
M  V30 14 C -0.996 -5.7882 -2.7194 0
M  V30 15 C 2.6928 -4.9407 -2.2931 0
M  V30 16 C 1.0842 -1.4821 2.8273 0 CFG=1
M  V30 17 C -1.1734 1.2953 -0.4994 0 CFG=2
M  V30 18 C -0.9407 1.4197 2.0596 0
M  V30 19 O -1.2015 -3.3203 0.1662 0
M  V30 20 C -2.9366 -3.5984 -1.5578 0 CFG=1
M  V30 21 O 1.7406 -2.5807 2.1993 0
M  V30 22 C 1.7281 -1.1749 4.1791 0
M  V30 23 O -1.1491 2.7303 -0.6783 0
M  V30 24 C -2.6591 0.7384 -0.5263 0
M  V30 25 C -3.8885 -3.0233 -0.4993 0
M  V30 26 C -2.7203 -2.6812 -2.7524 0
M  V30 27 C 1.6825 -3.7816 2.9762 0 CFG=2
M  V30 28 C 1.6786 -2.4041 5.1012 0
M  V30 29 C -1.3954 3.2169 -2.0038 0 CFG=2
M  V30 30 O -3.0898 0.7419 -1.9113 0
M  V30 31 C -2.7696 -0.7328 -0.0489 0
M  V30 32 C -3.6506 1.6546 0.2017 0
M  V30 33 O -4.5109 -3.8266 0.2089 0
M  V30 34 C -4.0888 -1.4939 -0.3419 0 CFG=2
M  V30 35 C 2.3665 -3.5722 4.3417 0 CFG=1
M  V30 36 C 2.3797 -4.8674 2.1625 0
M  V30 37 O 0.2743 -2.6038 5.3627 0
M  V30 38 C 2.4145 -2.0717 6.4081 0
M  V30 39 O -0.5403 2.5527 -2.9381 0
M  V30 40 C -1.1264 4.7465 -2.0079 0 CFG=1
M  V30 41 C -5.1266 -1.2632 0.7683 0
M  V30 42 O 2.3952 -4.7687 5.1216 0
M  V30 43 C -0.0946 -3.7425 6.1261 0
M  V30 44 C -0.6547 2.9836 -4.2919 0 CFG=2
M  V30 45 O 0.2476 4.9379 -1.5873 0
M  V30 46 C -1.343 5.278 -3.4493 0 CFG=2
M  V30 47 C -0.4505 4.4962 -4.4283 0
M  V30 48 C -1.9509 2.4819 -4.9252 0
M  V30 49 C 0.4263 5.1425 -0.2537 0
M  V30 50 N -1.2731 6.7594 -3.5638 0
M  V30 51 O -0.436 5.4969 0.538 0
M  V30 52 C 1.8606 4.8663 0.112 0
M  V30 53 C -1.9598 7.2477 -4.7622 0
M  V30 54 C 0.0713 7.3289 -3.4987 0
M  V30 55 C 1.9785 4.5216 1.5931 0
M  V30 56 C 3.1906 3.6732 1.8738 0
M  V30 57 O 4.1117 3.4757 1.094 0
M  V30 58 O 3.1132 3.1749 3.1395 0
M  V30 59 C 4.1897 2.3021 3.4986 0
M  V30 60 C 4.0376 1.9434 4.9641 0
M  V30 61 H 2.2455 -1.3414 0.0796 0
M  V30 62 H -0.1789 -3.1118 -3.0057 0
M  V30 63 H -0.2803 -1.1102 0.8783 0
M  V30 64 H 3.0269 0.1697 -1.5926 0
M  V30 65 H 2.7961 1.0346 -0.0666 0
M  V30 66 H 1.6429 1.235 -1.402 0
M  V30 67 H 1.314 -4.7955 -3.9372 0
M  V30 68 H 2.1396 -3.305 -3.52 0
M  V30 69 H 0.5525 1.804 0.6659 0
M  V30 70 H -0.2511 -6.2847 -0.4004 0
M  V30 71 H -2.1046 -5.0495 -0.2445 0
M  V30 72 H -0.1658 -6.3939 -3.0985 0
M  V30 73 H -1.485 -5.3043 -3.5679 0
M  V30 74 H -1.7034 -6.4994 -2.2771 0
M  V30 75 H 3.5861 -5.0898 -2.9088 0
M  V30 76 H 2.3382 -5.932 -1.9995 0
M  V30 77 H 2.9947 -4.3928 -1.3956 0
M  V30 78 H 0.0156 -1.7005 2.9495 0
M  V30 79 H -0.6516 0.8698 -1.3526 0
M  V30 80 H -1.4586 2.3812 1.9851 0
M  V30 81 H -0.2069 1.5274 2.866 0
M  V30 82 H -1.6574 0.6576 2.3733 0
M  V30 83 H -0.3176 -3.6688 0.4137 0
M  V30 84 H -3.4923 -4.4483 -1.9833 0
M  V30 85 H 1.209 -0.3211 4.6339 0
M  V30 86 H 2.7693 -0.864 4.0202 0
M  V30 87 H -2.3174 -3.2313 -3.6066 0
M  V30 88 H -2.0439 -1.8567 -2.54 0
M  V30 89 H -3.6685 -2.2488 -3.0902 0
M  V30 90 H 0.6341 -4.0795 3.1013 0
M  V30 91 H -2.4445 3.0403 -2.255 0
M  V30 92 H -2.3397 0.4374 -2.4574 0
M  V30 93 H -2.5541 -0.8067 1.0213 0
M  V30 94 H -1.9611 -1.2519 -0.5565 0
M  V30 95 H -3.6214 1.5178 1.2855 0
M  V30 96 H -3.4681 2.7132 -0.0068 0
M  V30 97 H -4.6738 1.4825 -0.1479 0
M  V30 98 H -4.5357 -1.1496 -1.2803 0
M  V30 99 H 3.4132 -3.2832 4.1721 0
M  V30 100 H 1.9586 -4.9179 1.155 0
M  V30 101 H 3.445 -4.642 2.0413 0
M  V30 102 H 2.2793 -5.8513 2.6293 0
M  V30 103 H 1.8894 -1.2838 6.9598 0
M  V30 104 H 3.4389 -1.7351 6.215 0
M  V30 105 H 2.4757 -2.9368 7.0755 0
M  V30 106 H -1.8197 5.2496 -1.3224 0
M  V30 107 H -6.0477 -1.8206 0.5619 0
M  V30 108 H -5.4122 -0.2163 0.8678 0
M  V30 109 H -4.748 -1.6022 1.7393 0
M  V30 110 H 3.0418 -5.371 4.7145 0
M  V30 111 H -0.018 -4.6517 5.5258 0
M  V30 112 H 0.4853 -3.8327 7.0466 0
M  V30 113 H -1.1465 -3.6274 6.4044 0
M  V30 114 H 0.1653 2.4929 -4.8299 0
M  V30 115 H -2.3864 5.0222 -3.6811 0
M  V30 116 H 0.6028 4.7117 -4.2108 0
M  V30 117 H -0.6326 4.7998 -5.465 0
M  V30 118 H -2.0336 1.3964 -4.8041 0
M  V30 119 H -1.9782 2.7146 -5.9942 0
M  V30 120 H -2.8404 2.9165 -4.4611 0
M  V30 121 H 2.4682 5.7427 -0.1349 0
M  V30 122 H 2.2039 4.0229 -0.4991 0
M  V30 123 H -1.4594 6.9412 -5.6867 0
M  V30 124 H -2.995 6.8902 -4.7928 0
M  V30 125 H -2.0147 8.3423 -4.7527 0
M  V30 126 H 0.7064 7.0087 -4.3312 0
M  V30 127 H 0.5741 7.0906 -2.5597 0
M  V30 128 H 0.0178 8.4239 -3.5286 0
M  V30 129 H 2.0426 5.4378 2.1901 0
M  V30 130 H 1.0996 3.955 1.923 0
M  V30 131 H 5.1517 2.8026 3.3414 0
M  V30 132 H 4.1399 1.3953 2.8858 0
M  V30 133 H 4.8202 1.2477 5.2792 0
M  V30 134 H 4.0927 2.8425 5.5868 0
M  V30 135 H 3.0604 1.4881 5.1529 0
M  V30 END ATOM
M  V30 BEGIN BOND
M  V30 1 2 1 2
M  V30 2 1 2 3
M  V30 3 1 2 4
M  V30 4 1 3 5
M  V30 5 1 4 6
M  V30 6 1 4 7
M  V30 7 1 5 8
M  V30 8 1 5 9
M  V30 9 1 6 10
M  V30 10 1 6 11
M  V30 11 1 8 12
M  V30 12 1 8 13
M  V30 13 1 8 14
M  V30 14 1 9 15
M  V30 15 1 10 16
M  V30 16 1 11 17
M  V30 17 1 11 18
M  V30 18 1 13 19
M  V30 19 1 13 20
M  V30 20 1 16 21
M  V30 21 1 16 22
M  V30 22 1 17 23
M  V30 23 1 17 24
M  V30 24 1 20 25
M  V30 25 1 20 26
M  V30 26 1 21 27
M  V30 27 1 22 28
M  V30 28 1 23 29
M  V30 29 1 24 30
M  V30 30 1 24 31
M  V30 31 1 24 32
M  V30 32 2 25 33
M  V30 33 1 25 34
M  V30 34 1 27 35
M  V30 35 1 27 36
M  V30 36 1 28 37
M  V30 37 1 28 38
M  V30 38 1 29 39
M  V30 39 1 29 40
M  V30 40 1 34 41
M  V30 41 1 35 42
M  V30 42 1 37 43
M  V30 43 1 39 44
M  V30 44 1 40 45
M  V30 45 1 40 46
M  V30 46 1 44 47
M  V30 47 1 44 48
M  V30 48 1 45 49
M  V30 49 1 46 50
M  V30 50 2 49 51
M  V30 51 1 49 52
M  V30 52 1 50 53
M  V30 53 1 50 54
M  V30 54 1 52 55
M  V30 55 1 55 56
M  V30 56 2 56 57
M  V30 57 1 56 58
M  V30 58 1 58 59
M  V30 59 1 59 60
M  V30 60 1 28 35
M  V30 61 1 31 34
M  V30 62 1 46 47
M  V30 63 1 4 61
M  V30 64 1 5 62
M  V30 65 1 6 63
M  V30 66 1 7 64
M  V30 67 1 7 65
M  V30 68 1 7 66
M  V30 69 1 9 67
M  V30 70 1 9 68
M  V30 71 1 11 69
M  V30 72 1 12 70
M  V30 73 1 13 71
M  V30 74 1 14 72
M  V30 75 1 14 73
M  V30 76 1 14 74
M  V30 77 1 15 75
M  V30 78 1 15 76
M  V30 79 1 15 77
M  V30 80 1 16 78
M  V30 81 1 17 79
M  V30 82 1 18 80
M  V30 83 1 18 81
M  V30 84 1 18 82
M  V30 85 1 19 83
M  V30 86 1 20 84
M  V30 87 1 22 85
M  V30 88 1 22 86
M  V30 89 1 26 87
M  V30 90 1 26 88
M  V30 91 1 26 89
M  V30 92 1 27 90
M  V30 93 1 29 91
M  V30 94 1 30 92
M  V30 95 1 31 93
M  V30 96 1 31 94
M  V30 97 1 32 95
M  V30 98 1 32 96
M  V30 99 1 32 97
M  V30 100 1 34 98
M  V30 101 1 35 99
M  V30 102 1 36 100
M  V30 103 1 36 101
M  V30 104 1 36 102
M  V30 105 1 38 103
M  V30 106 1 38 104
M  V30 107 1 38 105
M  V30 108 1 40 106
M  V30 109 1 41 107
M  V30 110 1 41 108
M  V30 111 1 41 109
M  V30 112 1 42 110
M  V30 113 1 43 111
M  V30 114 1 43 112
M  V30 115 1 43 113
M  V30 116 1 44 114
M  V30 117 1 46 115
M  V30 118 1 47 116
M  V30 119 1 47 117
M  V30 120 1 48 118
M  V30 121 1 48 119
M  V30 122 1 48 120
M  V30 123 1 52 121
M  V30 124 1 52 122
M  V30 125 1 53 123
M  V30 126 1 53 124
M  V30 127 1 53 125
M  V30 128 1 54 126
M  V30 129 1 54 127
M  V30 130 1 54 128
M  V30 131 1 55 129
M  V30 132 1 55 130
M  V30 133 1 59 131
M  V30 134 1 59 132
M  V30 135 1 60 133
M  V30 136 1 60 134
M  V30 137 1 60 135
M  V30 END BOND
M  V30 BEGIN COLLECTION
M  V30 MDLV30/STEABS ATOMS=(15 4 5 6 11 13 16 17 20 27 29 34 35 40 44 46)
M  V30 END COLLECTION
M  V30 END CTAB
M  END
>  <level_0>
3093

>  <index>
3093

>  <NO.>
3094

>  <Name>


>  <SMILES>
CCOC(=O)CCC(=O)O[C@@H]1[C@H](O[C@H]2[C@@H](C)[C@H](O[C@@H]3CC(C)(OC)[C@@H](O)[C@H](C)O3)[C@H](C)C(=O)O[C@@H](CC)C(C)(O)[C@@H](O)[C@H](C)C(=O)[C@@H](C)CC2(C)O)O[C@@H](C)C[C@@H]1N(C)C

>  <logBB>


>  <Class>
-1

>  <MW>
861.51

>  <nHBAcc>
17

>  <nHBDon>
4

>  <SLogP>
2.68

>  <TopoPSA>
226.28

>  <MMFF94 Energy>
168.88

$$$$
CCOC(=O)O[C@@H]1[C@H](O[C@H]2[C@@H](C)[C@H](O[C@@H]3CC(C)(OC)[C@@H](O)[C@H](C)O3)[C@H](C)C(=O)O[C@@H](CC)C(C)(O)[C@@H](O)[C@H](C)C(=O)[C@@H](C)CC2(C)O)O[C@@H](C)C[C@@H]1N(C)C
Actelion Java MolfileCreator 2.0

  0  0  0  0  0  0              0 V3000
M  V30 BEGIN CTAB
M  V30 COUNTS 127 129 0 0 0
M  V30 BEGIN ATOM
M  V30 1 O 0.3163 0.3954 4.3564 0
M  V30 2 C 0.2469 -0.4351 3.4591 0
M  V30 3 O 1.2421 -1.3247 3.1547 0
M  V30 4 C -1.0139 -0.7219 2.6449 0 CFG=2
M  V30 5 C 2.4959 -1.1877 3.871 0 CFG=2
M  V30 6 C -0.7761 -0.8988 1.1158 0 CFG=1
M  V30 7 C -2.1465 0.2267 3.036 0
M  V30 8 C 3.7024 -1.2351 2.8497 0
M  V30 9 C 2.5434 -2.2067 5.0289 0
M  V30 10 O -1.476 -2.1327 0.7997 0
M  V30 11 C -1.3569 0.1653 0.111 0 CFG=1
M  V30 12 O 4.9338 -0.9874 3.5503 0
M  V30 13 C 3.5041 -0.07 1.8349 0 CFG=1
M  V30 14 C 3.8087 -2.5728 2.1199 0
M  V30 15 C 1.8725 -3.5481 4.7694 0
M  V30 16 C -0.72 -3.2304 0.2895 0 CFG=1
M  V30 17 C -0.8065 1.6356 0.1457 0 CFG=2
M  V30 18 C -1.3909 -0.3944 -1.3361 0
M  V30 19 O 3.5143 1.1655 2.5727 0
M  V30 20 C 4.4132 0.0976 0.6086 0 CFG=1
M  V30 21 O 0.4212 -2.8566 -0.4769 0
M  V30 22 C -0.2979 -4.1567 1.4244 0
M  V30 23 O -1.3184 2.3647 -0.9856 0
M  V30 24 C 0.7445 1.8758 0.2051 0
M  V30 25 C 4.0323 1.4088 -0.1092 0
M  V30 26 C 5.9086 0.1303 0.9311 0
M  V30 27 C 1.0026 -3.9855 -1.1403 0 CFG=2
M  V30 28 C 0.323 -5.4411 0.8516 0
M  V30 29 C -2.4422 3.1984 -0.6884 0 CFG=2
M  V30 30 O 1.1023 1.4915 1.5265 0
M  V30 31 C 1.525 1.0358 -0.8434 0
M  V30 32 C 1.04 3.3803 0.0691 0
M  V30 33 O 4.6054 2.4699 0.1677 0
M  V30 34 C 2.9715 1.4219 -1.2133 0 CFG=2
M  V30 35 C 1.4689 -5.0505 -0.1252 0 CFG=1
M  V30 36 C 2.1706 -3.4656 -1.9728 0
M  V30 37 O -0.6159 -6.1922 0.0448 0
M  V30 38 C 0.8859 -6.3289 1.9716 0
M  V30 39 O -3.5599 2.3992 -0.3066 0
M  V30 40 C -2.7643 4.0563 -1.9376 0 CFG=1
M  V30 41 C 3.4656 0.5677 -2.3867 0
M  V30 42 O 1.9365 -6.2155 -0.8149 0
M  V30 43 C -1.7592 -6.7191 0.7062 0
M  V30 44 C -4.7498 3.1241 0.0021 0 CFG=2
M  V30 45 O -3.072 3.1771 -3.043 0
M  V30 46 C -3.9925 4.9434 -1.6107 0 CFG=2
M  V30 47 C -5.1619 4.0567 -1.1419 0
M  V30 48 C -4.6323 3.8263 1.3536 0
M  V30 49 C -2.0239 2.8242 -3.8243 0
M  V30 50 N -4.4357 5.9338 -2.6266 0
M  V30 51 O -0.89 3.2761 -3.7683 0
M  V30 52 O -2.4584 1.8903 -4.7079 0
M  V30 53 C -4.8667 5.375 -3.9067 0
M  V30 54 C -3.4313 6.9753 -2.854 0
M  V30 55 C -1.4358 1.3898 -5.5722 0
M  V30 56 C -2.0436 0.3153 -6.4526 0
M  V30 57 H -1.3318 -1.6987 3.0433 0
M  V30 58 H 2.5552 -0.2053 4.3587 0
M  V30 59 H 0.2891 -1.0259 0.923 0
M  V30 60 H -2.3712 0.1278 4.1049 0
M  V30 61 H -3.0683 -0.0032 2.4935 0
M  V30 62 H -1.8841 1.2741 2.8739 0
M  V30 63 H 3.5713 -2.3613 5.3711 0
M  V30 64 H 2.0114 -1.7598 5.8799 0
M  V30 65 H -2.4267 0.2468 0.3457 0
M  V30 66 H 5.1676 -1.7832 4.0592 0
M  V30 67 H 2.5088 -0.2138 1.4234 0
M  V30 68 H 2.8801 -2.8118 1.5971 0
M  V30 69 H 4.6231 -2.5702 1.3889 0
M  V30 70 H 4.0536 -3.3843 2.8111 0
M  V30 71 H 1.9763 -4.191 5.6499 0
M  V30 72 H 2.3153 -4.0735 3.9233 0
M  V30 73 H 0.8014 -3.4277 4.5796 0
M  V30 74 H -1.4213 -3.7559 -0.3694 0
M  V30 75 H -1.2067 2.0911 1.0595 0
M  V30 76 H -0.4006 -0.6844 -1.6905 0
M  V30 77 H -2.0363 -1.2768 -1.4021 0
M  V30 78 H -1.8094 0.3219 -2.0483 0
M  V30 79 H 4.3319 1.1458 3.1119 0
M  V30 80 H 4.2502 -0.7337 -0.0841 0
M  V30 81 H -1.1559 -4.3683 2.0712 0
M  V30 82 H 0.4404 -3.6442 2.051 0
M  V30 83 H 6.2587 -0.8376 1.3003 0
M  V30 84 H 6.1488 0.8902 1.6823 0
M  V30 85 H 6.4907 0.3648 0.0325 0
M  V30 86 H 0.268 -4.4126 -1.8355 0
M  V30 87 H -2.1597 3.864 0.136 0
M  V30 88 H 1.9475 1.9137 1.7973 0
M  V30 89 H 1.5304 -0.0153 -0.5424 0
M  V30 90 H 0.9596 1.0955 -1.7827 0
M  V30 91 H 0.4249 3.9596 0.7679 0
M  V30 92 H 2.0772 3.6126 0.3312 0
M  V30 93 H 0.8492 3.7461 -0.9447 0
M  V30 94 H 2.9498 2.4539 -1.5898 0
M  V30 95 H 2.3109 -4.652 0.4498 0
M  V30 96 H 1.8259 -2.6939 -2.6701 0
M  V30 97 H 2.9262 -2.9948 -1.334 0
M  V30 98 H 2.6451 -4.2659 -2.5478 0
M  V30 99 H 1.1841 -7.3102 1.5867 0
M  V30 100 H 1.7546 -5.8667 2.4505 0
M  V30 101 H 0.1387 -6.5064 2.7527 0
M  V30 102 H -1.9005 4.6874 -2.177 0
M  V30 103 H 3.4028 -0.5016 -2.1636 0
M  V30 104 H 2.8625 0.7556 -3.2816 0
M  V30 105 H 4.5087 0.7975 -2.6302 0
M  V30 106 H 1.1285 -6.7199 -1.0421 0
M  V30 107 H -1.4766 -7.4466 1.4707 0
M  V30 108 H -2.365 -7.2397 -0.041 0
M  V30 109 H -2.3729 -5.9254 1.1379 0
M  V30 110 H -5.5378 2.369 0.1108 0
M  V30 111 H -3.7136 5.5489 -0.7368 0
M  V30 112 H -5.501 3.4253 -1.9718 0
M  V30 113 H -6.0175 4.6714 -0.8362 0
M  V30 114 H -4.328 3.1106 2.1252 0
M  V30 115 H -5.5896 4.2685 1.6474 0
M  V30 116 H -3.8804 4.6203 1.35 0
M  V30 117 H -4.0394 4.9562 -4.4872 0
M  V30 118 H -5.6369 4.6086 -3.7843 0
M  V30 119 H -5.3261 6.1614 -4.5175 0
M  V30 120 H -2.5305 6.5885 -3.3424 0
M  V30 121 H -3.1387 7.4487 -1.9102 0
M  V30 122 H -3.8433 7.7719 -3.4841 0
M  V30 123 H -0.6212 0.9607 -4.9774 0
M  V30 124 H -1.0485 2.2034 -6.1958 0
M  V30 125 H -1.2963 -0.0985 -7.1351 0
M  V30 126 H -2.4534 -0.4962 -5.8422 0
M  V30 127 H -2.8732 0.722 -7.0404 0
M  V30 END ATOM
M  V30 BEGIN BOND
M  V30 1 2 1 2
M  V30 2 1 2 3
M  V30 3 1 2 4
M  V30 4 1 3 5
M  V30 5 1 4 6
M  V30 6 1 4 7
M  V30 7 1 5 8
M  V30 8 1 5 9
M  V30 9 1 6 10
M  V30 10 1 6 11
M  V30 11 1 8 12
M  V30 12 1 8 13
M  V30 13 1 8 14
M  V30 14 1 9 15
M  V30 15 1 10 16
M  V30 16 1 11 17
M  V30 17 1 11 18
M  V30 18 1 13 19
M  V30 19 1 13 20
M  V30 20 1 16 21
M  V30 21 1 16 22
M  V30 22 1 17 23
M  V30 23 1 17 24
M  V30 24 1 20 25
M  V30 25 1 20 26
M  V30 26 1 21 27
M  V30 27 1 22 28
M  V30 28 1 23 29
M  V30 29 1 24 30
M  V30 30 1 24 31
M  V30 31 1 24 32
M  V30 32 2 25 33
M  V30 33 1 25 34
M  V30 34 1 27 35
M  V30 35 1 27 36
M  V30 36 1 28 37
M  V30 37 1 28 38
M  V30 38 1 29 39
M  V30 39 1 29 40
M  V30 40 1 34 41
M  V30 41 1 35 42
M  V30 42 1 37 43
M  V30 43 1 39 44
M  V30 44 1 40 45
M  V30 45 1 40 46
M  V30 46 1 44 47
M  V30 47 1 44 48
M  V30 48 1 45 49
M  V30 49 1 46 50
M  V30 50 2 49 51
M  V30 51 1 49 52
M  V30 52 1 50 53
M  V30 53 1 50 54
M  V30 54 1 52 55
M  V30 55 1 55 56
M  V30 56 1 28 35
M  V30 57 1 31 34
M  V30 58 1 46 47
M  V30 59 1 4 57
M  V30 60 1 5 58
M  V30 61 1 6 59
M  V30 62 1 7 60
M  V30 63 1 7 61
M  V30 64 1 7 62
M  V30 65 1 9 63
M  V30 66 1 9 64
M  V30 67 1 11 65
M  V30 68 1 12 66
M  V30 69 1 13 67
M  V30 70 1 14 68
M  V30 71 1 14 69
M  V30 72 1 14 70
M  V30 73 1 15 71
M  V30 74 1 15 72
M  V30 75 1 15 73
M  V30 76 1 16 74
M  V30 77 1 17 75
M  V30 78 1 18 76
M  V30 79 1 18 77
M  V30 80 1 18 78
M  V30 81 1 19 79
M  V30 82 1 20 80
M  V30 83 1 22 81
M  V30 84 1 22 82
M  V30 85 1 26 83
M  V30 86 1 26 84
M  V30 87 1 26 85
M  V30 88 1 27 86
M  V30 89 1 29 87
M  V30 90 1 30 88
M  V30 91 1 31 89
M  V30 92 1 31 90
M  V30 93 1 32 91
M  V30 94 1 32 92
M  V30 95 1 32 93
M  V30 96 1 34 94
M  V30 97 1 35 95
M  V30 98 1 36 96
M  V30 99 1 36 97
M  V30 100 1 36 98
M  V30 101 1 38 99
M  V30 102 1 38 100
M  V30 103 1 38 101
M  V30 104 1 40 102
M  V30 105 1 41 103
M  V30 106 1 41 104
M  V30 107 1 41 105
M  V30 108 1 42 106
M  V30 109 1 43 107
M  V30 110 1 43 108
M  V30 111 1 43 109
M  V30 112 1 44 110
M  V30 113 1 46 111
M  V30 114 1 47 112
M  V30 115 1 47 113
M  V30 116 1 48 114
M  V30 117 1 48 115
M  V30 118 1 48 116
M  V30 119 1 53 117
M  V30 120 1 53 118
M  V30 121 1 53 119
M  V30 122 1 54 120
M  V30 123 1 54 121
M  V30 124 1 54 122
M  V30 125 1 55 123
M  V30 126 1 55 124
M  V30 127 1 56 125
M  V30 128 1 56 126
M  V30 129 1 56 127
M  V30 END BOND
M  V30 BEGIN COLLECTION
M  V30 MDLV30/STEABS ATOMS=(15 4 5 6 11 13 16 17 20 27 29 34 35 40 44 46)
M  V30 END COLLECTION
M  V30 END CTAB
M  END
>  <level_0>
3102

>  <index>
3102

>  <NO.>
3103

>  <Name>


>  <SMILES>
CCOC(=O)O[C@@H]1[C@H](O[C@H]2[C@@H](C)[C@H](O[C@@H]3CC(C)(OC)[C@@H](O)[C@H](C)O3)[C@H](C)C(=O)O[C@@H](CC)C(C)(O)[C@@H](O)[C@H](C)C(=O)[C@@H](C)CC2(C)O)O[C@@H](C)C[C@@H]1N(C)C

>  <logBB>


>  <Class>
-1

>  <MW>
805.48

>  <nHBAcc>
16

>  <nHBDon>
4

>  <SLogP>
2.97

>  <TopoPSA>
209.21

>  <MMFF94 Energy>
167.66

$$$$
CC[C@@H]1NC(=O)[C@@H](NC(=O)c2ncccc2O)[C@H](C)OC(=O)[C@H](c2ccccc2)NC(=O)[C@@H]2CC(=O)CCN2C(=O)[C@H](Cc2ccccc2)N(C)C(=O)C2CCCN2C1=O
Actelion Java MolfileCreator 2.0

  0  0  0  0  0  0              0 V3000
M  V30 BEGIN CTAB
M  V30 COUNTS 109 114 0 0 0
M  V30 BEGIN ATOM
M  V30 1 O 4.3279 -2.4026 0.0 0
M  V30 2 C 3.1057 -2.354 0.022 0
M  V30 3 O 2.3781 -1.5419 0.8456 0
M  V30 4 C 2.144 -3.1489 -0.9076 0 CFG=1
M  V30 5 C 3.0347 -0.5418 1.6525 0 CFG=2
M  V30 6 N 0.7717 -2.7981 -0.571 0
M  V30 7 C 2.4105 -2.8452 -2.3722 0
M  V30 8 C 2.096 -0.1507 2.8297 0 CFG=2
M  V30 9 C 3.3567 0.6499 0.7564 0
M  V30 10 C -0.3669 -3.4861 -0.8708 0
M  V30 11 C 2.65 -3.8903 -3.276 0
M  V30 12 C 2.3854 -1.5257 -2.8587 0
M  V30 13 N 2.1286 -1.1804 3.8701 0
M  V30 14 C 0.6184 -0.0588 2.3916 0
M  V30 15 O -0.3891 -4.5325 -1.5082 0
M  V30 16 C -1.6377 -2.7611 -0.3619 0 CFG=1
M  V30 17 C 2.8786 -3.6221 -4.6269 0
M  V30 18 C 2.6162 -1.2601 -4.2093 0
M  V30 19 C 3.1211 -1.2341 4.825 0
M  V30 20 O -0.0482 -1.0834 2.1963 0
M  V30 21 N -0.0139 1.1401 2.2252 0
M  V30 22 N -2.0609 -1.6728 -1.2756 0
M  V30 23 C -2.7327 -3.7787 -0.0437 0
M  V30 24 C 2.8651 -2.3084 -5.0921 0
M  V30 25 O 4.0125 -0.3877 4.8504 0
M  V30 26 C 3.0668 -2.3661 5.8269 0
M  V30 27 C 0.2761 2.4216 2.8699 0 CFG=2
M  V30 28 C -1.3142 -0.4881 -1.2831 0
M  V30 29 C -3.3419 -1.8593 -1.9581 0
M  V30 30 C -3.48 -4.2155 -1.2784 0
M  V30 31 N 4.0482 -2.3268 6.773 0
M  V30 32 C 2.0988 -3.3776 5.8004 0
M  V30 33 C -1.0435 3.2256 3.0472 0
M  V30 34 C 1.4251 3.2092 2.2266 0
M  V30 35 O -0.2147 -0.4095 -0.7219 0
M  V30 36 C -1.864 0.7442 -2.0448 0 CFG=1
M  V30 37 C -3.4964 -3.2827 -2.4587 0
M  V30 38 O -4.0999 -5.2799 -1.3036 0
M  V30 39 C 4.065 -3.305 7.7004 0
M  V30 40 O 1.1129 -3.4233 4.852 0
M  V30 41 C 2.1449 -4.374 6.7755 0
M  V30 42 O -1.4462 3.4402 4.1973 0
M  V30 43 N -1.7418 3.7147 1.9608 0
M  V30 44 C 1.5339 4.6518 2.7031 0
M  V30 45 N -1.3258 1.981 -1.3933 0
M  V30 46 C -1.529 0.582 -3.5467 0
M  V30 47 C 3.145 -4.3378 7.7426 0
M  V30 48 C -1.4348 3.6367 0.5225 0
M  V30 49 C -2.9019 4.5617 2.1736 0
M  V30 50 C -1.8403 2.2962 -0.1338 0
M  V30 51 C -0.1711 2.6427 -1.9953 0
M  V30 52 C -2.1955 1.529 -4.5255 0
M  V30 53 C -2.292 4.7436 -0.1223 0
M  V30 54 C -2.8073 5.5719 1.0467 0
M  V30 55 O -2.6567 1.5524 0.4206 0
M  V30 56 C -3.2594 2.3771 -4.1893 0
M  V30 57 C -1.7342 1.5326 -5.8532 0
M  V30 58 C -3.8336 3.2148 -5.1497 0
M  V30 59 C -2.3089 2.3692 -6.8113 0
M  V30 60 C -3.3585 3.2121 -6.4585 0
M  V30 61 H 2.2753 -4.2144 -0.6874 0
M  V30 62 H 3.9703 -0.9549 2.0489 0
M  V30 63 H 0.6502 -1.8808 -0.1312 0
M  V30 64 H 2.4327 0.7763 3.2947 0
M  V30 65 H 2.4494 1.0574 0.2987 0
M  V30 66 H 4.0089 0.3499 -0.0705 0
M  V30 67 H 3.8672 1.4389 1.3151 0
M  V30 68 H 2.6477 -4.9238 -2.9346 0
M  V30 69 H 2.1802 -0.6962 -2.1849 0
M  V30 70 H 1.4118 -1.9063 3.8496 0
M  V30 71 H -1.3749 -2.2894 0.5901 0
M  V30 72 H 3.0638 -4.4418 -5.3165 0
M  V30 73 H 2.6036 -0.2362 -4.5721 0
M  V30 74 H -0.9717 0.9987 1.9056 0
M  V30 75 H -2.3185 -4.6624 0.4538 0
M  V30 76 H -3.4726 -3.324 0.6262 0
M  V30 77 H 3.0468 -2.1043 -6.1438 0
M  V30 78 H 0.5971 2.1699 3.8907 0
M  V30 79 H -4.1269 -1.6088 -1.2334 0
M  V30 80 H -3.4548 -1.17 -2.7946 0
M  V30 81 H 1.3765 3.1774 1.1351 0
M  V30 82 H 2.3721 2.7254 2.4794 0
M  V30 83 H -2.9486 0.7598 -1.889 0
M  V30 84 H -4.4514 -3.3925 -2.9824 0
M  V30 85 H -2.6826 -3.5597 -3.1364 0
M  V30 86 H 4.8648 -3.2335 8.4327 0
M  V30 87 H 0.5395 -4.1929 5.0162 0
M  V30 88 H 1.418 -5.1802 6.7976 0
M  V30 89 H 0.684 5.2546 2.3706 0
M  V30 90 H 2.4411 5.1118 2.2978 0
M  V30 91 H 1.5905 4.7009 3.7952 0
M  V30 92 H -1.7837 -0.4324 -3.8766 0
M  V30 93 H -0.4417 0.6518 -3.6837 0
M  V30 94 H 3.2074 -5.0991 8.5131 0
M  V30 95 H -0.3794 3.8472 0.4049 0
M  V30 96 H -3.7964 3.9362 2.0754 0
M  V30 97 H -2.9066 5.04 3.157 0
M  V30 98 H -0.4352 3.0077 -2.9897 0
M  V30 99 H 0.1855 3.4975 -1.4258 0
M  V30 100 H 0.6498 1.9233 -2.0655 0
M  V30 101 H -1.7097 5.3514 -0.8226 0
M  V30 102 H -3.1403 4.3289 -0.6811 0
M  V30 103 H -2.0734 6.3474 1.2979 0
M  V30 104 H -3.7622 6.0603 0.8337 0
M  V30 105 H -3.6652 2.4126 -3.1821 0
M  V30 106 H -0.9188 0.8758 -6.152 0
M  V30 107 H -4.6576 3.8694 -4.8754 0
M  V30 108 H -1.9394 2.3593 -7.8335 0
M  V30 109 H -3.8091 3.8625 -7.2037 0
M  V30 END ATOM
M  V30 BEGIN BOND
M  V30 1 2 1 2
M  V30 2 1 2 3
M  V30 3 1 2 4
M  V30 4 1 3 5
M  V30 5 1 4 6
M  V30 6 1 4 7
M  V30 7 1 5 8
M  V30 8 1 5 9
M  V30 9 1 6 10
M  V30 10 2 7 11
M  V30 11 1 7 12
M  V30 12 1 8 13
M  V30 13 1 8 14
M  V30 14 2 10 15
M  V30 15 1 10 16
M  V30 16 1 11 17
M  V30 17 2 12 18
M  V30 18 1 13 19
M  V30 19 2 14 20
M  V30 20 1 14 21
M  V30 21 1 16 22
M  V30 22 1 16 23
M  V30 23 2 17 24
M  V30 24 2 19 25
M  V30 25 1 19 26
M  V30 26 1 21 27
M  V30 27 1 22 28
M  V30 28 1 22 29
M  V30 29 1 23 30
M  V30 30 2 26 31
M  V30 31 1 26 32
M  V30 32 1 27 33
M  V30 33 1 27 34
M  V30 34 2 28 35
M  V30 35 1 28 36
M  V30 36 1 29 37
M  V30 37 2 30 38
M  V30 38 1 31 39
M  V30 39 1 32 40
M  V30 40 2 32 41
M  V30 41 2 33 42
M  V30 42 1 33 43
M  V30 43 1 34 44
M  V30 44 1 36 45
M  V30 45 1 36 46
M  V30 46 2 39 47
M  V30 47 1 43 48
M  V30 48 1 43 49
M  V30 49 1 45 50
M  V30 50 1 45 51
M  V30 51 1 46 52
M  V30 52 1 48 53
M  V30 53 1 49 54
M  V30 54 2 50 55
M  V30 55 2 52 56
M  V30 56 1 52 57
M  V30 57 1 56 58
M  V30 58 2 57 59
M  V30 59 2 58 60
M  V30 60 1 18 24
M  V30 61 1 30 37
M  V30 62 1 41 47
M  V30 63 1 48 50
M  V30 64 1 53 54
M  V30 65 1 59 60
M  V30 66 1 4 61
M  V30 67 1 5 62
M  V30 68 1 6 63
M  V30 69 1 8 64
M  V30 70 1 9 65
M  V30 71 1 9 66
M  V30 72 1 9 67
M  V30 73 1 11 68
M  V30 74 1 12 69
M  V30 75 1 13 70
M  V30 76 1 16 71
M  V30 77 1 17 72
M  V30 78 1 18 73
M  V30 79 1 21 74
M  V30 80 1 23 75
M  V30 81 1 23 76
M  V30 82 1 24 77
M  V30 83 1 27 78
M  V30 84 1 29 79
M  V30 85 1 29 80
M  V30 86 1 34 81
M  V30 87 1 34 82
M  V30 88 1 36 83
M  V30 89 1 37 84
M  V30 90 1 37 85
M  V30 91 1 39 86
M  V30 92 1 40 87
M  V30 93 1 41 88
M  V30 94 1 44 89
M  V30 95 1 44 90
M  V30 96 1 44 91
M  V30 97 1 46 92
M  V30 98 1 46 93
M  V30 99 1 47 94
M  V30 100 1 48 95
M  V30 101 1 49 96
M  V30 102 1 49 97
M  V30 103 1 51 98
M  V30 104 1 51 99
M  V30 105 1 51 100
M  V30 106 1 53 101
M  V30 107 1 53 102
M  V30 108 1 54 103
M  V30 109 1 54 104
M  V30 110 1 56 105
M  V30 111 1 57 106
M  V30 112 1 58 107
M  V30 113 1 59 108
M  V30 114 1 60 109
M  V30 END BOND
M  V30 BEGIN COLLECTION
M  V30 MDLV30/STEABS ATOMS=(6 4 5 8 16 27 36)
M  V30 END COLLECTION
M  V30 END CTAB
M  END
>  <level_0>
3117

>  <index>
3117

>  <NO.>
3118

>  <Name>


>  <SMILES>
CC[C@@H]1NC(=O)[C@@H](NC(=O)c2ncccc2O)[C@H](C)OC(=O)[C@H](c2ccccc2)NC(=O)[C@@H]2CC(=O)CCN2C(=O)[C@H](Cc2ccccc2)N(C)C(=O)C2CCCN2C1=O

>  <logBB>


>  <Class>
-1

>  <MW>
823.35

>  <nHBAcc>
11

>  <nHBDon>
4

>  <SLogP>
1.2

>  <TopoPSA>
224.72

>  <MMFF94 Energy>
238.91

$$$$
CN(C)[C@@H]1C(=O)C(C(=O)NCN2CCN(/C(N)=N/C(=N)N)CC2)=C(O)C2(O)C(=O)C3=C(O)c4c(O)cccc4C(C)(O)[C@H]3C[C@@H]12
Actelion Java MolfileCreator 2.0

  0  0  0  0  0  0              0 V3000
M  V30 BEGIN CTAB
M  V30 COUNTS 83 87 0 0 0
M  V30 BEGIN ATOM
M  V30 1 O -0.239 1.0362 5.7497 0
M  V30 2 C -0.5623 1.0923 4.563 0
M  V30 3 C -0.3707 2.3475 3.8072 0
M  V30 4 C -1.0857 -0.1165 3.7385 0
M  V30 5 C 0.8526 2.8855 3.7201 0
M  V30 6 C -1.5678 2.7929 3.0371 0 CFG=1
M  V30 7 O -1.7228 -0.9927 4.6744 0
M  V30 8 C 0.1125 -0.8681 3.1729 0
M  V30 9 C -2.1241 0.3223 2.6704 0 CFG=1
M  V30 10 O 1.9118 2.4545 4.4891 0
M  V30 11 C 1.119 3.9246 2.6919 0
M  V30 12 C -1.4099 4.2558 2.5146 0
M  V30 13 C -1.8132 1.6975 1.9908 0
M  V30 14 O 1.0746 -1.1629 4.1385 0
M  V30 15 C 0.2393 -1.2398 1.8787 0
M  V30 16 C -2.2931 -0.753 1.5623 0 CFG=1
M  V30 17 C 2.4205 4.2693 2.2662 0
M  V30 18 C 0.0166 4.5857 2.0816 0
M  V30 19 O -1.6602 5.1476 3.6191 0
M  V30 20 C -2.4892 4.5744 1.4642 0
M  V30 21 C -0.9017 -0.9755 0.953 0
M  V30 22 C 1.4868 -1.9287 1.4222 0
M  V30 23 N -2.8611 -2.0673 1.966 0
M  V30 24 O 3.5182 3.609 2.7514 0
M  V30 25 C 2.6399 5.261 1.3068 0
M  V30 26 C 0.2651 5.5989 1.1311 0
M  V30 27 O -0.7343 -0.9704 -0.2696 0
M  V30 28 O 2.3513 -2.2683 2.2294 0
M  V30 29 N 1.6015 -2.1415 0.0783 0
M  V30 30 C -4.1645 -1.9293 2.6268 0
M  V30 31 C -3.0185 -2.969 0.8139 0
M  V30 32 C 1.5618 5.9307 0.7466 0
M  V30 33 C 2.7528 -2.7729 -0.4866 0
M  V30 34 N 2.631 -2.8854 -1.928 0
M  V30 35 C 2.6169 -1.5937 -2.6348 0
M  V30 36 C 1.5276 -3.7471 -2.3779 0
M  V30 37 C 2.6133 -1.7572 -4.1698 0
M  V30 38 C 1.5235 -3.941 -3.9093 0
M  V30 39 N 1.5171 -2.644 -4.6076 0
M  V30 40 C 0.9476 -2.4561 -5.8462 0
M  V30 41 N 1.4968 -1.6865 -6.7365 0
M  V30 42 N -0.2299 -3.1104 -5.9982 0
M  V30 43 C 0.8979 -1.5433 -7.939 0
M  V30 44 N -0.1161 -0.755 -8.0138 0
M  V30 45 N 1.3602 -2.184 -9.02 0
M  V30 46 H -2.4265 2.7951 3.7258 0
M  V30 47 H -1.0308 -1.2057 5.3346 0
M  V30 48 H -3.09 0.4635 3.1737 0
M  V30 49 H 1.5708 1.917 5.2322 0
M  V30 50 H -2.6757 1.9576 1.3664 0
M  V30 51 H -0.9504 1.6233 1.317 0
M  V30 52 H 1.8228 -1.6532 3.7224 0
M  V30 53 H -2.9305 -0.3262 0.7745 0
M  V30 54 H -2.5773 5.0313 3.9161 0
M  V30 55 H -2.5955 5.6539 1.3055 0
M  V30 56 H -3.4745 4.2369 1.8081 0
M  V30 57 H -2.2772 4.1025 0.4992 0
M  V30 58 H 4.3151 4.1282 2.5666 0
M  V30 59 H 3.6448 5.5148 0.9834 0
M  V30 60 H -0.5498 6.1633 0.6858 0
M  V30 61 H 0.8693 -1.8072 -0.541 0
M  V30 62 H -4.8885 -1.4001 1.9966 0
M  V30 63 H -4.0836 -1.4038 3.5819 0
M  V30 64 H -4.5802 -2.914 2.8713 0
M  V30 65 H -3.6615 -2.5369 0.0386 0
M  V30 66 H -2.052 -3.2227 0.3671 0
M  V30 67 H -3.4561 -3.9236 1.1291 0
M  V30 68 H 1.728 6.7132 0.0106 0
M  V30 69 H 3.6424 -2.1931 -0.2128 0
M  V30 70 H 2.8721 -3.7614 -0.0271 0
M  V30 71 H 3.5023 -1.0094 -2.3566 0
M  V30 72 H 1.7352 -1.0049 -2.3517 0
M  V30 73 H 1.6154 -4.7349 -1.9098 0
M  V30 74 H 0.5572 -3.329 -2.0814 0
M  V30 75 H 2.5089 -0.7582 -4.6101 0
M  V30 76 H 3.5709 -2.1715 -4.5086 0
M  V30 77 H 0.6586 -4.5589 -4.1715 0
M  V30 78 H 2.4154 -4.5025 -4.2153 0
M  V30 79 H -0.7491 -2.9851 -6.8596 0
M  V30 80 H -0.7631 -3.3689 -5.1838 0
M  V30 81 H -0.2143 -0.3746 -7.0654 0
M  V30 82 H 0.9366 -1.9902 -9.913 0
M  V30 83 H 2.2021 -2.7315 -8.9507 0
M  V30 END ATOM
M  V30 BEGIN BOND
M  V30 1 2 1 2
M  V30 2 1 2 3
M  V30 3 1 2 4
M  V30 4 2 3 5
M  V30 5 1 3 6
M  V30 6 1 4 7
M  V30 7 1 4 8
M  V30 8 1 4 9
M  V30 9 1 5 10
M  V30 10 1 5 11
M  V30 11 1 6 12
M  V30 12 1 6 13
M  V30 13 1 8 14
M  V30 14 2 8 15
M  V30 15 1 9 16
M  V30 16 2 11 17
M  V30 17 1 11 18
M  V30 18 1 12 19
M  V30 19 1 12 20
M  V30 20 1 15 21
M  V30 21 1 15 22
M  V30 22 1 16 23
M  V30 23 1 17 24
M  V30 24 1 17 25
M  V30 25 2 18 26
M  V30 26 2 21 27
M  V30 27 2 22 28
M  V30 28 1 22 29
M  V30 29 1 23 30
M  V30 30 1 23 31
M  V30 31 2 25 32
M  V30 32 1 29 33
M  V30 33 1 33 34
M  V30 34 1 34 35
M  V30 35 1 34 36
M  V30 36 1 35 37
M  V30 37 1 36 38
M  V30 38 1 37 39
M  V30 39 1 39 40
M  V30 40 2 40 41
M  V30 41 1 40 42
M  V30 42 1 41 43
M  V30 43 2 43 44
M  V30 44 1 43 45
M  V30 45 1 9 13
M  V30 46 1 12 18
M  V30 47 1 16 21
M  V30 48 1 26 32
M  V30 49 1 38 39
M  V30 50 1 6 46
M  V30 51 1 7 47
M  V30 52 1 9 48
M  V30 53 1 10 49
M  V30 54 1 13 50
M  V30 55 1 13 51
M  V30 56 1 14 52
M  V30 57 1 16 53
M  V30 58 1 19 54
M  V30 59 1 20 55
M  V30 60 1 20 56
M  V30 61 1 20 57
M  V30 62 1 24 58
M  V30 63 1 25 59
M  V30 64 1 26 60
M  V30 65 1 29 61
M  V30 66 1 30 62
M  V30 67 1 30 63
M  V30 68 1 30 64
M  V30 69 1 31 65
M  V30 70 1 31 66
M  V30 71 1 31 67
M  V30 72 1 32 68
M  V30 73 1 33 69
M  V30 74 1 33 70
M  V30 75 1 35 71
M  V30 76 1 35 72
M  V30 77 1 36 73
M  V30 78 1 36 74
M  V30 79 1 37 75
M  V30 80 1 37 76
M  V30 81 1 38 77
M  V30 82 1 38 78
M  V30 83 1 42 79
M  V30 84 1 42 80
M  V30 85 1 44 81
M  V30 86 1 45 82
M  V30 87 1 45 83
M  V30 END BOND
M  V30 BEGIN COLLECTION
M  V30 MDLV30/STEABS ATOMS=(3 6 9 16)
M  V30 END COLLECTION
M  V30 END CTAB
M  END
>  <level_0>
3174

>  <index>
3174

>  <NO.>
3175

>  <Name>


>  <SMILES>
CN(C)[C@@H]1C(=O)C(C(=O)NCN2CCN(/C(N)=N/C(=N)N)CC2)=C(O)C2(O)C(=O)C3=C(O)c4c(O)cccc4C(C)(O)[C@H]3C[C@@H]12

>  <logBB>


>  <Class>
-1

>  <MW>
626.28

>  <nHBAcc>
11

>  <nHBDon>
9

>  <SLogP>
-1.96

>  <TopoPSA>
262.36

>  <MMFF94 Energy>
-75.632

$$$$
CN(C)[C@@H]1C(O)=C(C(=O)NCN2CCC[C@H](C(=O)O)C2)C(=O)C2(O)C(O)=C3C(=O)c4c(O)cccc4C(C)(O)[C@H]3C[C@@H]12
Actelion Java MolfileCreator 2.0

  0  0  0  0  0  0              0 V3000
M  V30 BEGIN CTAB
M  V30 COUNTS 77 81 0 0 0
M  V30 BEGIN ATOM
M  V30 1 O 2.4917 -2.3308 -0.3212 0
M  V30 2 C 2.0108 -1.6459 -1.2157 0
M  V30 3 C 1.1489 -2.1624 -2.3102 0
M  V30 4 C 2.1488 -0.1659 -1.1965 0
M  V30 5 C 0.2969 -3.2547 -2.0992 0
M  V30 6 C 1.1684 -1.4956 -3.5551 0
M  V30 7 C 2.0177 0.4642 -0.0136 0
M  V30 8 C 2.2339 0.576 -2.5021 0 CFG=1
M  V30 9 O 0.215 -3.8528 -0.8737 0
M  V30 10 C -0.5249 -3.7135 -3.1263 0
M  V30 11 C 0.3361 -1.9793 -4.5787 0
M  V30 12 C 2.1511 -0.3548 -3.755 0
M  V30 13 O 2.02 -0.2221 1.1939 0
M  V30 14 C 1.7967 1.9711 0.0968 0
M  V30 15 C 1.2083 1.7148 -2.4356 0
M  V30 16 C -0.5025 -3.076 -4.3642 0
M  V30 17 O 3.4217 -1.0212 -3.8898 0
M  V30 18 C 1.9649 0.4489 -5.0511 0
M  V30 19 O 2.9868 2.4992 0.6901 0
M  V30 20 C 0.6043 2.1728 1.0696 0
M  V30 21 C 1.5503 2.6916 -1.2657 0 CFG=1
M  V30 22 O 0.7315 2.1818 2.2967 0
M  V30 23 C -0.7422 2.2709 0.4599 0
M  V30 24 C 0.4331 3.7796 -1.1564 0 CFG=1
M  V30 25 C -0.8076 3.0648 -0.6271 0
M  V30 26 C -1.9171 1.5182 0.9572 0
M  V30 27 N 0.7631 4.9426 -0.2954 0
M  V30 28 O -1.9589 3.2604 -1.3751 0
M  V30 29 O -3.0042 1.6114 0.3881 0
M  V30 30 N -1.6778 0.693 2.0142 0
M  V30 31 C 2.0158 5.6 -0.6826 0
M  V30 32 C -0.3131 5.9473 -0.3182 0
M  V30 33 C -2.6458 -0.2255 2.519 0
M  V30 34 N -1.884 -1.2936 3.1535 0
M  V30 35 C -2.7674 -2.0925 4.0233 0
M  V30 36 C -1.2345 -2.1609 2.1514 0
M  V30 37 C -1.9812 -3.176 4.7748 0 CFG=1
M  V30 38 C -0.3917 -3.2402 2.8313 0
M  V30 39 C -2.9216 -3.9956 5.6242 0
M  V30 40 C -1.2259 -4.0756 3.7957 0
M  V30 41 O -4.141 -3.9712 5.6079 0
M  V30 42 O -2.2708 -4.8146 6.4744 0
M  V30 43 H 3.2331 1.0378 -2.5303 0
M  V30 44 H -0.1888 -4.7303 -0.9722 0
M  V30 45 H -1.1978 -4.5527 -2.9758 0
M  V30 46 H 0.3346 -1.5277 -5.5676 0
M  V30 47 H 2.2875 -1.1567 1.0256 0
M  V30 48 H 1.2185 2.2986 -3.3627 0
M  V30 49 H 0.1981 1.2987 -2.3363 0
M  V30 50 H -1.1395 -3.4349 -5.1699 0
M  V30 51 H 4.1105 -0.3537 -4.0494 0
M  V30 52 H 0.9564 0.8657 -5.1407 0
M  V30 53 H 2.6871 1.2724 -5.1025 0
M  V30 54 H 2.1598 -0.1692 -5.9357 0
M  V30 55 H 3.0001 2.1218 1.5941 0
M  V30 56 H 2.4857 3.1759 -1.575 0
M  V30 57 H 0.2282 4.1459 -2.1727 0
M  V30 58 H -2.6991 2.7797 -0.9354 0
M  V30 59 H -0.7966 0.7298 2.5193 0
M  V30 60 H 2.0172 5.8915 -1.7389 0
M  V30 61 H 2.8822 4.9618 -0.49 0
M  V30 62 H 2.1842 6.5009 -0.0804 0
M  V30 63 H -0.5052 6.3203 -1.3308 0
M  V30 64 H -1.247 5.5499 0.0919 0
M  V30 65 H -0.0543 6.8022 0.3177 0
M  V30 66 H -3.2431 0.3315 3.2497 0
M  V30 67 H -3.3124 -0.5801 1.7241 0
M  V30 68 H -3.5785 -2.5435 3.4342 0
M  V30 69 H -3.2427 -1.4361 4.7645 0
M  V30 70 H -0.5675 -1.577 1.5066 0
M  V30 71 H -1.9825 -2.6319 1.4999 0
M  V30 72 H -1.2721 -2.6809 5.4521 0
M  V30 73 H 0.4365 -2.7698 3.3765 0
M  V30 74 H 0.0562 -3.892 2.0732 0
M  V30 75 H -1.9354 -4.6914 3.2276 0
M  V30 76 H -0.5751 -4.7724 4.3371 0
M  V30 77 H -2.9851 -5.2701 6.9672 0
M  V30 END ATOM
M  V30 BEGIN BOND
M  V30 1 2 1 2
M  V30 2 1 2 3
M  V30 3 1 2 4
M  V30 4 2 3 5
M  V30 5 1 3 6
M  V30 6 2 4 7
M  V30 7 1 4 8
M  V30 8 1 5 9
M  V30 9 1 5 10
M  V30 10 2 6 11
M  V30 11 1 6 12
M  V30 12 1 7 13
M  V30 13 1 7 14
M  V30 14 1 8 15
M  V30 15 2 10 16
M  V30 16 1 12 17
M  V30 17 1 12 18
M  V30 18 1 14 19
M  V30 19 1 14 20
M  V30 20 1 14 21
M  V30 21 2 20 22
M  V30 22 1 20 23
M  V30 23 1 21 24
M  V30 24 2 23 25
M  V30 25 1 23 26
M  V30 26 1 24 27
M  V30 27 1 25 28
M  V30 28 2 26 29
M  V30 29 1 26 30
M  V30 30 1 27 31
M  V30 31 1 27 32
M  V30 32 1 30 33
M  V30 33 1 33 34
M  V30 34 1 34 35
M  V30 35 1 34 36
M  V30 36 1 35 37
M  V30 37 1 36 38
M  V30 38 1 37 39
M  V30 39 1 37 40
M  V30 40 2 39 41
M  V30 41 1 39 42
M  V30 42 1 8 12
M  V30 43 1 11 16
M  V30 44 1 15 21
M  V30 45 1 24 25
M  V30 46 1 38 40
M  V30 47 1 8 43
M  V30 48 1 9 44
M  V30 49 1 10 45
M  V30 50 1 11 46
M  V30 51 1 13 47
M  V30 52 1 15 48
M  V30 53 1 15 49
M  V30 54 1 16 50
M  V30 55 1 17 51
M  V30 56 1 18 52
M  V30 57 1 18 53
M  V30 58 1 18 54
M  V30 59 1 19 55
M  V30 60 1 21 56
M  V30 61 1 24 57
M  V30 62 1 28 58
M  V30 63 1 30 59
M  V30 64 1 31 60
M  V30 65 1 31 61
M  V30 66 1 31 62
M  V30 67 1 32 63
M  V30 68 1 32 64
M  V30 69 1 32 65
M  V30 70 1 33 66
M  V30 71 1 33 67
M  V30 72 1 35 68
M  V30 73 1 35 69
M  V30 74 1 36 70
M  V30 75 1 36 71
M  V30 76 1 37 72
M  V30 77 1 38 73
M  V30 78 1 38 74
M  V30 79 1 40 75
M  V30 80 1 40 76
M  V30 81 1 42 77
M  V30 END BOND
M  V30 BEGIN COLLECTION
M  V30 MDLV30/STEABS ATOMS=(4 8 21 24 37)
M  V30 END COLLECTION
M  V30 END CTAB
M  END
>  <level_0>
3187

>  <index>
3187

>  <NO.>
3188

>  <Name>


>  <SMILES>
CN(C)[C@@H]1C(O)=C(C(=O)NCN2CCC[C@H](C(=O)O)C2)C(=O)C2(O)C(O)=C3C(=O)c4c(O)cccc4C(C)(O)[C@H]3C[C@@H]12

>  <logBB>


>  <Class>
-1

>  <MW>
585.23

>  <nHBAcc>
11

>  <nHBDon>
7

>  <SLogP>
0.17

>  <TopoPSA>
208.17

>  <MMFF94 Energy>
44.8

$$$$
CN(C)[C@@H]1C(O)=C(C(=O)NCN2CCN(/C(N)=N/C(=N)N)CC2)C(=O)C2(O)C(O)=C3C(=O)c4c(O)cccc4C(C)(O)[C@H]3C[C@@H]12
Actelion Java MolfileCreator 2.0

  0  0  0  0  0  0              0 V3000
M  V30 BEGIN CTAB
M  V30 COUNTS 83 87 0 0 0
M  V30 BEGIN ATOM
M  V30 1 O -0.1594 -3.5914 -1.0365 0
M  V30 2 C 0.0155 -3.7028 0.1741 0
M  V30 3 C 0.8601 -4.779 0.7566 0
M  V30 4 C -0.6042 -2.7209 1.1203 0
M  V30 5 C 1.0152 -6.0052 0.0889 0
M  V30 6 C 1.5318 -4.5444 1.976 0
M  V30 7 C -1.51 -1.8343 0.6524 0
M  V30 8 C -0.1719 -2.787 2.5679 0 CFG=1
M  V30 9 O 0.3145 -6.2717 -1.0527 0
M  V30 10 C 1.8556 -6.9911 0.6015 0
M  V30 11 C 2.3847 -5.5504 2.4677 0
M  V30 12 C 1.3313 -3.209 2.6885 0
M  V30 13 O -1.9296 -1.8252 -0.6748 0
M  V30 14 C -2.2449 -0.8266 1.5282 0
M  V30 15 C -0.4781 -1.4516 3.2734 0
M  V30 16 C 2.5444 -6.7588 1.7866 0
M  V30 17 O 2.1425 -2.2254 2.036 0
M  V30 18 C 1.7866 -3.221 4.159 0
M  V30 19 O -3.6397 -1.1181 1.333 0
M  V30 20 C -1.9891 0.6068 0.9893 0
M  V30 21 C -1.93 -0.965 3.0296 0 CFG=1
M  V30 22 O -2.4702 0.9995 -0.0802 0
M  V30 23 C -1.1381 1.5295 1.7955 0
M  V30 24 C -2.1766 0.379 3.7847 0 CFG=1
M  V30 25 C -1.2739 1.4281 3.1339 0
M  V30 26 C -0.2311 2.5273 1.1495 0
M  V30 27 N -3.5817 0.8443 3.8303 0
M  V30 28 O -0.576 2.248 4.0063 0
M  V30 29 O 0.7316 3.0291 1.7212 0
M  V30 30 N -0.5288 2.8109 -0.1556 0
M  V30 31 C -4.4874 -0.1475 4.4218 0
M  V30 32 C -3.7482 2.1142 4.5483 0
M  V30 33 C 0.2545 3.704 -0.9435 0
M  V30 34 N -0.1482 3.4865 -2.3246 0
M  V30 35 C 0.3806 2.1978 -2.845 0
M  V30 36 C 0.3549 4.5956 -3.1738 0
M  V30 37 C 0.0436 1.9798 -4.3388 0
M  V30 38 C 0.014 4.3878 -4.6649 0
M  V30 39 N 0.5679 3.1047 -5.1324 0
M  V30 40 C 1.7899 3.0702 -5.7624 0
M  V30 41 N 2.5952 4.0881 -5.7439 0
M  V30 42 N 2.0144 1.8996 -6.4065 0
M  V30 43 C 3.7874 3.9891 -6.3713 0
M  V30 44 N 3.8049 4.1167 -7.6511 0
M  V30 45 N 4.9159 3.7891 -5.6789 0
M  V30 46 H -0.7834 -3.5649 3.05 0
M  V30 47 H 0.639 -7.0894 -1.4622 0
M  V30 48 H 1.9782 -7.9447 0.0962 0
M  V30 49 H 2.9454 -5.4239 3.3906 0
M  V30 50 H -1.3888 -2.4777 -1.1793 0
M  V30 51 H -0.3486 -1.5722 4.3555 0
M  V30 52 H 0.2496 -0.6979 2.9517 0
M  V30 53 H 3.2046 -7.5246 2.1887 0
M  V30 54 H 2.9301 -2.6639 1.6686 0
M  V30 55 H 2.8548 -3.4505 4.2469 0
M  V30 56 H 1.2205 -3.945 4.7544 0
M  V30 57 H 1.6899 -2.2335 4.6219 0
M  V30 58 H -3.7662 -1.0403 0.364 0
M  V30 59 H -2.5764 -1.7394 3.4629 0
M  V30 60 H -1.8392 0.2236 4.8199 0
M  V30 61 H -0.9187 2.1446 4.9093 0
M  V30 62 H -1.3607 2.4192 -0.59 0
M  V30 63 H -4.1797 -0.4266 5.4359 0
M  V30 64 H -4.5565 -1.0537 3.815 0
M  V30 65 H -5.5109 0.2428 4.4722 0
M  V30 66 H -3.3906 2.0493 5.5822 0
M  V30 67 H -3.226 2.9344 4.0456 0
M  V30 68 H -4.8032 2.4121 4.5701 0
M  V30 69 H 0.0021 4.7167 -0.6079 0
M  V30 70 H 1.3247 3.5412 -0.7691 0
M  V30 71 H -0.0484 1.3603 -2.2827 0
M  V30 72 H 1.4708 2.1567 -2.717 0
M  V30 73 H -0.1025 5.5376 -2.8483 0
M  V30 74 H 1.4422 4.6985 -3.0595 0
M  V30 75 H 0.4495 1.0151 -4.6598 0
M  V30 76 H -1.044 1.9222 -4.4707 0
M  V30 77 H 0.3842 5.2298 -5.2609 0
M  V30 78 H -1.0755 4.3748 -4.7967 0
M  V30 79 H 2.8552 1.7962 -6.9618 0
M  V30 80 H 1.2306 1.3145 -6.6505 0
M  V30 81 H 2.8269 4.3019 -7.9033 0
M  V30 82 H 5.7922 3.7966 -6.175 0
M  V30 83 H 4.8863 3.7665 -4.673 0
M  V30 END ATOM
M  V30 BEGIN BOND
M  V30 1 2 1 2
M  V30 2 1 2 3
M  V30 3 1 2 4
M  V30 4 2 3 5
M  V30 5 1 3 6
M  V30 6 2 4 7
M  V30 7 1 4 8
M  V30 8 1 5 9
M  V30 9 1 5 10
M  V30 10 2 6 11
M  V30 11 1 6 12
M  V30 12 1 7 13
M  V30 13 1 7 14
M  V30 14 1 8 15
M  V30 15 2 10 16
M  V30 16 1 12 17
M  V30 17 1 12 18
M  V30 18 1 14 19
M  V30 19 1 14 20
M  V30 20 1 14 21
M  V30 21 2 20 22
M  V30 22 1 20 23
M  V30 23 1 21 24
M  V30 24 2 23 25
M  V30 25 1 23 26
M  V30 26 1 24 27
M  V30 27 1 25 28
M  V30 28 2 26 29
M  V30 29 1 26 30
M  V30 30 1 27 31
M  V30 31 1 27 32
M  V30 32 1 30 33
M  V30 33 1 33 34
M  V30 34 1 34 35
M  V30 35 1 34 36
M  V30 36 1 35 37
M  V30 37 1 36 38
M  V30 38 1 37 39
M  V30 39 1 39 40
M  V30 40 2 40 41
M  V30 41 1 40 42
M  V30 42 1 41 43
M  V30 43 2 43 44
M  V30 44 1 43 45
M  V30 45 1 8 12
M  V30 46 1 11 16
M  V30 47 1 15 21
M  V30 48 1 24 25
M  V30 49 1 38 39
M  V30 50 1 8 46
M  V30 51 1 9 47
M  V30 52 1 10 48
M  V30 53 1 11 49
M  V30 54 1 13 50
M  V30 55 1 15 51
M  V30 56 1 15 52
M  V30 57 1 16 53
M  V30 58 1 17 54
M  V30 59 1 18 55
M  V30 60 1 18 56
M  V30 61 1 18 57
M  V30 62 1 19 58
M  V30 63 1 21 59
M  V30 64 1 24 60
M  V30 65 1 28 61
M  V30 66 1 30 62
M  V30 67 1 31 63
M  V30 68 1 31 64
M  V30 69 1 31 65
M  V30 70 1 32 66
M  V30 71 1 32 67
M  V30 72 1 32 68
M  V30 73 1 33 69
M  V30 74 1 33 70
M  V30 75 1 35 71
M  V30 76 1 35 72
M  V30 77 1 36 73
M  V30 78 1 36 74
M  V30 79 1 37 75
M  V30 80 1 37 76
M  V30 81 1 38 77
M  V30 82 1 38 78
M  V30 83 1 42 79
M  V30 84 1 42 80
M  V30 85 1 44 81
M  V30 86 1 45 82
M  V30 87 1 45 83
M  V30 END BOND
M  V30 BEGIN COLLECTION
M  V30 MDLV30/STEABS ATOMS=(3 8 21 24)
M  V30 END COLLECTION
M  V30 END CTAB
M  END
>  <level_0>
3188

>  <index>
3188

>  <NO.>
3189

>  <Name>


>  <SMILES>
CN(C)[C@@H]1C(O)=C(C(=O)NCN2CCN(/C(N)=N/C(=N)N)CC2)C(=O)C2(O)C(O)=C3C(=O)c4c(O)cccc4C(C)(O)[C@H]3C[C@@H]12

>  <logBB>


>  <Class>
-1

>  <MW>
626.28

>  <nHBAcc>
11

>  <nHBDon>
9

>  <SLogP>
-1.8

>  <TopoPSA>
262.36

>  <MMFF94 Energy>
-89.125

$$$$
CN(C)[C@@H]1C(O)=C(C(=O)NCN2CCN(CCO)CC2)C(=O)C2(O)C(O)=C3C(=O)c4c(O)cccc4C(C)(O)[C@H]3C[C@@H]12
Actelion Java MolfileCreator 2.0

  0  0  0  0  0  0              0 V3000
M  V30 BEGIN CTAB
M  V30 COUNTS 80 84 0 0 0
M  V30 BEGIN ATOM
M  V30 1 O -0.5608 -3.9307 -1.7633 0
M  V30 2 C -1.1168 -3.9309 -0.666 0
M  V30 3 C -1.2859 -5.1781 0.1136 0
M  V30 4 C -1.4818 -2.6682 0.016 0
M  V30 5 C -0.4826 -6.2892 -0.1858 0
M  V30 6 C -2.2039 -5.2226 1.1832 0
M  V30 7 C -0.8247 -1.5271 -0.2806 0
M  V30 8 C -2.4641 -2.6826 1.1639 0 CFG=1
M  V30 9 O 0.4093 -6.3131 -1.2244 0
M  V30 10 C -0.554 -7.4393 0.5904 0
M  V30 11 C -2.2661 -6.401 1.9487 0
M  V30 12 C -3.159 -4.0599 1.3827 0
M  V30 13 O 0.0934 -1.4058 -1.3033 0
M  V30 14 C -0.9695 -0.3532 0.6652 0
M  V30 15 C -1.8037 -2.0597 2.4162 0
M  V30 16 C -1.441 -7.4928 1.6613 0
M  V30 17 O -4.1196 -4.2318 0.3201 0
M  V30 18 C -3.9642 -4.0849 2.6919 0
M  V30 19 O -2.2834 0.1998 0.4727 0
M  V30 20 C 0.0344 0.7792 0.4036 0
M  V30 21 C -0.8507 -0.8467 2.1167 0 CFG=1
M  V30 22 O -0.307 1.7818 -0.236 0
M  V30 23 C 1.4283 0.6325 0.901 0
M  V30 24 C 0.6249 -1.2243 2.462 0 CFG=1
M  V30 25 C 1.6829 -0.3155 1.8312 0
M  V30 26 C 2.5499 1.4773 0.3753 0
M  V30 27 N 0.6959 -1.405 3.9349 0
M  V30 28 O 2.9754 -0.5873 2.2784 0
M  V30 29 O 3.7038 1.3084 0.7712 0
M  V30 30 N 2.2189 2.4255 -0.5485 0
M  V30 31 C 1.6688 -2.4206 4.3396 0
M  V30 32 C 0.9016 -0.1705 4.692 0
M  V30 33 C 3.2005 3.2869 -1.1308 0
M  V30 34 N 2.6094 4.1514 -2.1329 0
M  V30 35 C 2.059 3.4435 -3.2952 0
M  V30 36 C 1.6485 5.1283 -1.604 0
M  V30 37 C 1.5609 4.4263 -4.3788 0
M  V30 38 C 1.1313 6.0951 -2.6973 0
M  V30 39 N 0.559 5.3849 -3.8622 0
M  V30 40 C 0.1632 6.322 -4.9359 0
M  V30 41 C -0.9862 7.272 -4.558 0
M  V30 42 O -0.4985 8.4241 -3.8741 0
M  V30 43 H -3.2781 -2.0013 0.8721 0
M  V30 44 H 0.264 -5.5081 -1.768 0
M  V30 45 H 0.0766 -8.2929 0.3568 0
M  V30 46 H -2.9717 -6.5057 2.7694 0
M  V30 47 H 0.0529 -2.2266 -1.8483 0
M  V30 48 H -2.5956 -1.7019 3.0875 0
M  V30 49 H -1.274 -2.8428 2.9718 0
M  V30 50 H -1.5064 -8.3965 2.2632 0
M  V30 51 H -4.8171 -3.5616 0.4256 0
M  V30 52 H -4.6429 -4.9455 2.7278 0
M  V30 53 H -3.319 -4.1178 3.5758 0
M  V30 54 H -4.6082 -3.2004 2.767 0
M  V30 55 H -2.1995 0.8108 -0.2888 0
M  V30 56 H -1.1749 -0.0223 2.7681 0
M  V30 57 H 0.7993 -2.2092 2.0028 0
M  V30 58 H 3.6122 0.0278 1.8463 0
M  V30 59 H 1.2459 2.548 -0.814 0
M  V30 60 H 2.7063 -2.1232 4.1631 0
M  V30 61 H 1.4845 -3.3667 3.8186 0
M  V30 62 H 1.5625 -2.6368 5.4091 0
M  V30 63 H 1.9043 0.2493 4.5594 0
M  V30 64 H 0.1701 0.5971 4.4209 0
M  V30 65 H 0.7611 -0.3606 5.7624 0
M  V30 66 H 3.6676 3.8749 -0.3316 0
M  V30 67 H 3.9953 2.6709 -1.5682 0
M  V30 68 H 1.2257 2.7901 -3.0066 0
M  V30 69 H 2.8329 2.8077 -3.7418 0
M  V30 70 H 0.7839 4.6277 -1.1501 0
M  V30 71 H 2.1258 5.7276 -0.8191 0
M  V30 72 H 1.1167 3.8375 -5.1907 0
M  V30 73 H 2.4237 4.9617 -4.7984 0
M  V30 74 H 0.3666 6.724 -2.2292 0
M  V30 75 H 1.9547 6.7497 -3.0132 0
M  V30 76 H -0.1919 5.7218 -5.7831 0
M  V30 77 H 1.0285 6.9038 -5.2785 0
M  V30 78 H -1.4837 7.6208 -5.4692 0
M  V30 79 H -1.7309 6.7684 -3.9321 0
M  V30 80 H -1.2777 8.943 -3.6114 0
M  V30 END ATOM
M  V30 BEGIN BOND
M  V30 1 2 1 2
M  V30 2 1 2 3
M  V30 3 1 2 4
M  V30 4 2 3 5
M  V30 5 1 3 6
M  V30 6 2 4 7
M  V30 7 1 4 8
M  V30 8 1 5 9
M  V30 9 1 5 10
M  V30 10 2 6 11
M  V30 11 1 6 12
M  V30 12 1 7 13
M  V30 13 1 7 14
M  V30 14 1 8 15
M  V30 15 2 10 16
M  V30 16 1 12 17
M  V30 17 1 12 18
M  V30 18 1 14 19
M  V30 19 1 14 20
M  V30 20 1 14 21
M  V30 21 2 20 22
M  V30 22 1 20 23
M  V30 23 1 21 24
M  V30 24 2 23 25
M  V30 25 1 23 26
M  V30 26 1 24 27
M  V30 27 1 25 28
M  V30 28 2 26 29
M  V30 29 1 26 30
M  V30 30 1 27 31
M  V30 31 1 27 32
M  V30 32 1 30 33
M  V30 33 1 33 34
M  V30 34 1 34 35
M  V30 35 1 34 36
M  V30 36 1 35 37
M  V30 37 1 36 38
M  V30 38 1 37 39
M  V30 39 1 39 40
M  V30 40 1 40 41
M  V30 41 1 41 42
M  V30 42 1 8 12
M  V30 43 1 11 16
M  V30 44 1 15 21
M  V30 45 1 24 25
M  V30 46 1 38 39
M  V30 47 1 8 43
M  V30 48 1 9 44
M  V30 49 1 10 45
M  V30 50 1 11 46
M  V30 51 1 13 47
M  V30 52 1 15 48
M  V30 53 1 15 49
M  V30 54 1 16 50
M  V30 55 1 17 51
M  V30 56 1 18 52
M  V30 57 1 18 53
M  V30 58 1 18 54
M  V30 59 1 19 55
M  V30 60 1 21 56
M  V30 61 1 24 57
M  V30 62 1 28 58
M  V30 63 1 30 59
M  V30 64 1 31 60
M  V30 65 1 31 61
M  V30 66 1 31 62
M  V30 67 1 32 63
M  V30 68 1 32 64
M  V30 69 1 32 65
M  V30 70 1 33 66
M  V30 71 1 33 67
M  V30 72 1 35 68
M  V30 73 1 35 69
M  V30 74 1 36 70
M  V30 75 1 36 71
M  V30 76 1 37 72
M  V30 77 1 37 73
M  V30 78 1 38 74
M  V30 79 1 38 75
M  V30 80 1 40 76
M  V30 81 1 40 77
M  V30 82 1 41 78
M  V30 83 1 41 79
M  V30 84 1 42 80
M  V30 END BOND
M  V30 BEGIN COLLECTION
M  V30 MDLV30/STEABS ATOMS=(3 8 21 24)
M  V30 END COLLECTION
M  V30 END CTAB
M  END
>  <level_0>
3189

>  <index>
3189

>  <NO.>
3190

>  <Name>


>  <SMILES>
CN(C)[C@@H]1C(O)=C(C(=O)NCN2CCN(CCO)CC2)C(=O)C2(O)C(O)=C3C(=O)c4c(O)cccc4C(C)(O)[C@H]3C[C@@H]12

>  <logBB>


>  <Class>
-1

>  <MW>
586.26

>  <nHBAcc>
12

>  <nHBDon>
7

>  <SLogP>
-1.02

>  <TopoPSA>
194.34

>  <MMFF94 Energy>
142.39

$$$$
CN(C)[C@@H]1C(O)=C(C(=O)NCNCCCC[C@H](N)C(=O)O)C(=O)C2(O)C(O)=C3C(=O)c4c(O)cccc4C(C)(O)[C@H]3C[C@@H]12
Actelion Java MolfileCreator 2.0

  0  0  0  0  0  0              0 V3000
M  V30 BEGIN CTAB
M  V30 COUNTS 81 84 0 0 0
M  V30 BEGIN ATOM
M  V30 1 O 3.0331 -0.1594 -1.356 0
M  V30 2 C 3.3085 0.3926 -0.2969 0
M  V30 3 C 4.4553 1.3202 -0.1039 0
M  V30 4 C 2.4352 0.2056 0.884 0
M  V30 5 C 4.9502 2.082 -1.1726 0
M  V30 6 C 5.0395 1.4364 1.1745 0
M  V30 7 C 1.111 0.017 0.709 0
M  V30 8 C 2.9926 0.3669 2.2745 0 CFG=1
M  V30 9 O 4.3498 2.0327 -2.3983 0
M  V30 10 C 6.0392 2.9345 -0.9906 0
M  V30 11 C 6.1511 2.2848 1.3329 0
M  V30 12 C 4.5374 0.578 2.3271 0
M  V30 13 O 0.5131 -0.1486 -0.5243 0
M  V30 14 C 0.2051 0.153 1.9137 0
M  V30 15 C 2.1545 1.4188 3.0449 0
M  V30 16 C 6.6421 3.0298 0.2608 0
M  V30 17 O 4.8909 1.1639 3.586 0
M  V30 18 C 5.2685 -0.7762 2.2715 0
M  V30 19 O 0.391 -1.0164 2.7287 0
M  V30 20 C -1.2877 0.2178 1.5595 0
M  V30 21 C 0.6152 1.3917 2.7273 0 CFG=1
M  V30 22 O -1.9987 -0.7888 1.664 0
M  V30 23 C -1.8504 1.4998 1.058 0
M  V30 24 C 0.1973 2.7072 1.9946 0 CFG=1
M  V30 25 C -1.1375 2.633 1.2493 0
M  V30 26 C -3.1499 1.5573 0.3133 0
M  V30 27 N 0.3564 3.8222 2.9643 0
M  V30 28 O -1.542 3.8607 0.7253 0
M  V30 29 O -3.578 2.6255 -0.1267 0
M  V30 30 N -3.8119 0.3784 0.1479 0
M  V30 31 C 0.7326 5.0855 2.3299 0
M  V30 32 C -0.7858 4.0187 3.8565 0
M  V30 33 C -5.0382 0.2791 -0.5663 0
M  V30 34 N -5.2377 -1.1319 -0.8226 0
M  V30 35 C -4.3936 -1.6138 -1.9204 0
M  V30 36 C -4.6475 -3.1069 -2.1435 0
M  V30 37 C -3.7591 -3.6556 -3.2634 0
M  V30 38 C -3.9964 -5.1545 -3.48 0
M  V30 39 C -3.1792 -5.7207 -4.6495 0 CFG=2
M  V30 40 N -3.5888 -7.1153 -4.9276 0
M  V30 41 C -1.682 -5.7009 -4.3213 0
M  V30 42 O -1.0783 -6.5152 -3.6383 0
M  V30 43 O -1.0408 -4.6353 -4.8425 0
M  V30 44 H 2.8156 -0.5805 2.805 0
M  V30 45 H 4.8872 2.5105 -3.0503 0
M  V30 46 H 6.4282 3.5325 -1.8099 0
M  V30 47 H 6.6604 2.3557 2.2935 0
M  V30 48 H 1.23 -0.2742 -1.1924 0
M  V30 49 H 2.5666 2.4172 2.8557 0
M  V30 50 H 2.2813 1.243 4.1215 0
M  V30 51 H 7.5009 3.6824 0.4028 0
M  V30 52 H 4.65 2.1061 3.5612 0
M  V30 53 H 4.986 -1.4055 3.1237 0
M  V30 54 H 5.0575 -1.3295 1.3504 0
M  V30 55 H 6.3548 -0.6402 2.3422 0
M  V30 56 H -0.2058 -1.6958 2.3523 0
M  V30 57 H 0.0944 1.3338 3.6937 0
M  V30 58 H 0.9445 2.8584 1.2008 0
M  V30 59 H -2.4049 3.7532 0.2627 0
M  V30 60 H -3.4693 -0.4748 0.5827 0
M  V30 61 H -0.0655 5.5233 1.7239 0
M  V30 62 H 1.6185 4.9567 1.6982 0
M  V30 63 H 1.0091 5.8208 3.0945 0
M  V30 64 H -1.6685 4.4091 3.3388 0
M  V30 65 H -1.0688 3.091 4.3633 0
M  V30 66 H -0.5242 4.7306 4.6481 0
M  V30 67 H -5.8298 0.6589 0.088 0
M  V30 68 H -5.0232 0.891 -1.475 0
M  V30 69 H -6.2139 -1.2735 -1.0781 0
M  V30 70 H -4.6187 -1.0627 -2.8415 0
M  V30 71 H -3.3329 -1.4646 -1.6871 0
M  V30 72 H -5.702 -3.2719 -2.3983 0
M  V30 73 H -4.4476 -3.6593 -1.2166 0
M  V30 74 H -2.709 -3.4758 -3.0068 0
M  V30 75 H -3.9652 -3.1125 -4.1937 0
M  V30 76 H -3.7554 -5.6943 -2.5547 0
M  V30 77 H -5.0657 -5.3126 -3.6724 0
M  V30 78 H -3.3529 -5.1396 -5.5618 0
M  V30 79 H -3.2526 -7.7072 -4.1636 0
M  V30 80 H -4.6043 -7.1858 -4.9201 0
M  V30 81 H -0.1105 -4.7624 -4.5607 0
M  V30 END ATOM
M  V30 BEGIN BOND
M  V30 1 2 1 2
M  V30 2 1 2 3
M  V30 3 1 2 4
M  V30 4 2 3 5
M  V30 5 1 3 6
M  V30 6 2 4 7
M  V30 7 1 4 8
M  V30 8 1 5 9
M  V30 9 1 5 10
M  V30 10 2 6 11
M  V30 11 1 6 12
M  V30 12 1 7 13
M  V30 13 1 7 14
M  V30 14 1 8 15
M  V30 15 2 10 16
M  V30 16 1 12 17
M  V30 17 1 12 18
M  V30 18 1 14 19
M  V30 19 1 14 20
M  V30 20 1 14 21
M  V30 21 2 20 22
M  V30 22 1 20 23
M  V30 23 1 21 24
M  V30 24 2 23 25
M  V30 25 1 23 26
M  V30 26 1 24 27
M  V30 27 1 25 28
M  V30 28 2 26 29
M  V30 29 1 26 30
M  V30 30 1 27 31
M  V30 31 1 27 32
M  V30 32 1 30 33
M  V30 33 1 33 34
M  V30 34 1 34 35
M  V30 35 1 35 36
M  V30 36 1 36 37
M  V30 37 1 37 38
M  V30 38 1 38 39
M  V30 39 1 39 40
M  V30 40 1 39 41
M  V30 41 2 41 42
M  V30 42 1 41 43
M  V30 43 1 8 12
M  V30 44 1 11 16
M  V30 45 1 15 21
M  V30 46 1 24 25
M  V30 47 1 8 44
M  V30 48 1 9 45
M  V30 49 1 10 46
M  V30 50 1 11 47
M  V30 51 1 13 48
M  V30 52 1 15 49
M  V30 53 1 15 50
M  V30 54 1 16 51
M  V30 55 1 17 52
M  V30 56 1 18 53
M  V30 57 1 18 54
M  V30 58 1 18 55
M  V30 59 1 19 56
M  V30 60 1 21 57
M  V30 61 1 24 58
M  V30 62 1 28 59
M  V30 63 1 30 60
M  V30 64 1 31 61
M  V30 65 1 31 62
M  V30 66 1 31 63
M  V30 67 1 32 64
M  V30 68 1 32 65
M  V30 69 1 32 66
M  V30 70 1 33 67
M  V30 71 1 33 68
M  V30 72 1 34 69
M  V30 73 1 35 70
M  V30 74 1 35 71
M  V30 75 1 36 72
M  V30 76 1 36 73
M  V30 77 1 37 74
M  V30 78 1 37 75
M  V30 79 1 38 76
M  V30 80 1 38 77
M  V30 81 1 39 78
M  V30 82 1 40 79
M  V30 83 1 40 80
M  V30 84 1 43 81
M  V30 END BOND
M  V30 BEGIN COLLECTION
M  V30 MDLV30/STEABS ATOMS=(4 8 21 24 39)
M  V30 END COLLECTION
M  V30 END CTAB
M  END
>  <level_0>
3190

>  <index>
3190

>  <NO.>
3191

>  <Name>


>  <SMILES>
CN(C)[C@@H]1C(O)=C(C(=O)NCNCCCC[C@H](N)C(=O)O)C(=O)C2(O)C(O)=C3C(=O)c4c(O)cccc4C(C)(O)[C@H]3C[C@@H]12

>  <logBB>


>  <Class>
-1

>  <MW>
602.26

>  <nHBAcc>
12

>  <nHBDon>
9

>  <SLogP>
-0.45

>  <TopoPSA>
242.98

>  <MMFF94 Energy>
82.146

$$$$
CN(C)[C@@H]1C(O)=C(C(=O)NCN[C@H](C(=O)NC2C(=O)N3[C@H]2SC(C)(C)[C@@H]3C(=O)O)c2ccccc2)C(=O)C2(O)C(O)=C3C(=O)c4c(O)cccc4C(C)(O)[C@H]3C[C@@H]12
Actelion Java MolfileCreator 2.0

  0  0  0  0  0  0              0 V3000
M  V30 BEGIN CTAB
M  V30 COUNTS 100 106 0 0 0
M  V30 BEGIN ATOM
M  V30 1 S -3.4105 -1.6229 -7.2375 0
M  V30 2 C -3.2734 -0.5171 -8.7462 0
M  V30 3 C -1.7833 -1.106 -6.5189 0 CFG=2
M  V30 4 C -2.1518 0.4782 -8.3933 0 CFG=1
M  V30 5 C -2.9885 -1.4125 -9.9578 0
M  V30 6 C -4.623 0.1882 -8.9264 0
M  V30 7 N -1.2067 -0.2306 -7.546 0
M  V30 8 C -0.6139 -2.0946 -6.779 0
M  V30 9 C -1.5663 1.2834 -9.5518 0
M  V30 10 C -0.3059 -1.1586 -7.9773 0
M  V30 11 N 0.4676 -2.1511 -5.7544 0
M  V30 12 O -2.1882 1.7054 -10.5155 0
M  V30 13 O -0.2787 1.6426 -9.3781 0
M  V30 14 O 0.3836 -1.2143 -8.9681 0
M  V30 15 C 0.202 -2.4822 -4.4415 0
M  V30 16 O -0.9425 -2.7254 -4.0567 0
M  V30 17 C 1.4436 -2.5135 -3.5046 0 CFG=1
M  V30 18 N 1.0993 -1.7717 -2.2755 0
M  V30 19 C 1.8991 -3.9439 -3.2605 0
M  V30 20 C 2.1942 -1.696 -1.3449 0
M  V30 21 C 3.2247 -4.3133 -3.5444 0
M  V30 22 C 1.0307 -4.914 -2.7331 0
M  V30 23 N 1.7324 -0.7817 -0.3574 0
M  V30 24 C 3.6651 -5.618 -3.314 0
M  V30 25 C 1.4737 -6.2179 -2.505 0
M  V30 26 C 2.4222 -0.5498 0.7965 0
M  V30 27 C 2.7896 -6.5693 -2.7956 0
M  V30 28 O 3.4809 -1.1213 1.0609 0
M  V30 29 C 1.8321 0.449 1.7448 0
M  V30 30 C 0.5322 1.118 1.4755 0
M  V30 31 C 2.4733 0.7376 2.8998 0
M  V30 32 O 0.0437 1.1223 0.339 0
M  V30 33 C -0.2167 1.7783 2.6432 0
M  V30 34 O 3.6453 0.0846 3.2807 0
M  V30 35 C 1.9874 1.7531 3.9374 0 CFG=2
M  V30 36 O -1.1954 2.6614 2.0656 0
M  V30 37 C -0.9584 0.7978 3.5285 0
M  V30 38 C 0.7564 2.6082 3.4967 0 CFG=2
M  V30 39 N 3.0055 2.6954 4.4662 0
M  V30 40 O -0.9626 -0.5254 3.138 0
M  V30 41 C -1.44 1.2426 4.7088 0
M  V30 42 C 0.0599 3.2407 4.7557 0
M  V30 43 C 3.875 3.29 3.4525 0
M  V30 44 C 3.7999 2.1277 5.5556 0
M  V30 45 C -1.8678 0.2734 5.7426 0
M  V30 46 C -1.3732 2.7168 5.0255 0 CFG=2
M  V30 47 O -2.2014 -0.873 5.45 0
M  V30 48 C -1.7476 0.7004 7.1537 0
M  V30 49 C -1.9698 3.1166 6.4071 0
M  V30 50 C -1.6403 -0.2679 8.1636 0
M  V30 51 C -1.7014 2.0692 7.4753 0
M  V30 52 O -1.4268 4.3735 6.823 0
M  V30 53 C -3.4981 3.3007 6.3049 0
M  V30 54 O -1.7063 -1.6144 7.9234 0
M  V30 55 C -1.4505 0.1112 9.4883 0
M  V30 56 C -1.5144 2.4328 8.8216 0
M  V30 57 C -1.3801 1.4623 9.8168 0
M  V30 58 H -1.8385 -0.6282 -5.5371 0
M  V30 59 H -2.5638 1.252 -7.7273 0
M  V30 60 H -2.9105 -0.822 -10.8769 0
M  V30 61 H -2.0605 -1.982 -9.8568 0
M  V30 62 H -3.7984 -2.135 -10.117 0
M  V30 63 H -4.8823 0.8029 -8.0564 0
M  V30 64 H -4.6067 0.8501 -9.799 0
M  V30 65 H -5.4368 -0.5298 -9.0831 0
M  V30 66 H -0.9038 -3.1047 -7.0892 0
M  V30 67 H 1.4236 -1.9583 -6.0325 0
M  V30 68 H -0.0392 2.1329 -10.1911 0
M  V30 69 H 2.2433 -1.9584 -4.0128 0
M  V30 70 H 0.3122 -2.2434 -1.8299 0
M  V30 71 H 3.1007 -1.2773 -1.7952 0
M  V30 72 H 2.4302 -2.6528 -0.8677 0
M  V30 73 H 3.9307 -3.5873 -3.9422 0
M  V30 74 H -0.0031 -4.6643 -2.4978 0
M  V30 75 H 0.9033 -0.2361 -0.5803 0
M  V30 76 H 4.6933 -5.8927 -3.5359 0
M  V30 77 H 0.7897 -6.9594 -2.0994 0
M  V30 78 H 3.133 -7.5848 -2.6157 0
M  V30 79 H 3.9142 -0.5503 2.5777 0
M  V30 80 H 1.6388 1.1372 4.7804 0
M  V30 81 H -1.5055 2.2108 1.2524 0
M  V30 82 H 1.1017 3.4457 2.8736 0
M  V30 83 H -1.4987 -1.0376 3.7874 0
M  V30 84 H 0.011 4.327 4.6017 0
M  V30 85 H 0.6722 3.0956 5.6542 0
M  V30 86 H 4.5771 2.5705 3.0181 0
M  V30 87 H 3.2981 3.7401 2.6384 0
M  V30 88 H 4.4639 4.1023 3.8942 0
M  V30 89 H 4.4714 1.3278 5.231 0
M  V30 90 H 3.1522 1.7378 6.3488 0
M  V30 91 H 4.4131 2.9087 6.0203 0
M  V30 92 H -2.0063 3.2318 4.2877 0
M  V30 93 H -1.6831 5.0454 6.1676 0
M  V30 94 H -4.01 2.3834 5.9948 0
M  V30 95 H -3.7486 4.0919 5.5884 0
M  V30 96 H -3.9218 3.6169 7.2662 0
M  V30 97 H -1.9538 -1.7483 6.983 0
M  V30 98 H -1.3585 -0.6457 10.2627 0
M  V30 99 H -1.4838 3.4839 9.1065 0
M  V30 100 H -1.2341 1.7626 10.8518 0
M  V30 END ATOM
M  V30 BEGIN BOND
M  V30 1 1 1 2
M  V30 2 1 1 3
M  V30 3 1 2 4
M  V30 4 1 2 5
M  V30 5 1 2 6
M  V30 6 1 3 7
M  V30 7 1 3 8
M  V30 8 1 4 9
M  V30 9 1 7 10
M  V30 10 1 8 11
M  V30 11 2 9 12
M  V30 12 1 9 13
M  V30 13 2 10 14
M  V30 14 1 11 15
M  V30 15 2 15 16
M  V30 16 1 15 17
M  V30 17 1 17 18
M  V30 18 1 17 19
M  V30 19 1 18 20
M  V30 20 2 19 21
M  V30 21 1 19 22
M  V30 22 1 20 23
M  V30 23 1 21 24
M  V30 24 2 22 25
M  V30 25 1 23 26
M  V30 26 2 24 27
M  V30 27 2 26 28
M  V30 28 1 26 29
M  V30 29 1 29 30
M  V30 30 2 29 31
M  V30 31 2 30 32
M  V30 32 1 30 33
M  V30 33 1 31 34
M  V30 34 1 31 35
M  V30 35 1 33 36
M  V30 36 1 33 37
M  V30 37 1 33 38
M  V30 38 1 35 39
M  V30 39 1 37 40
M  V30 40 2 37 41
M  V30 41 1 38 42
M  V30 42 1 39 43
M  V30 43 1 39 44
M  V30 44 1 41 45
M  V30 45 1 41 46
M  V30 46 2 45 47
M  V30 47 1 45 48
M  V30 48 1 46 49
M  V30 49 2 48 50
M  V30 50 1 48 51
M  V30 51 1 49 52
M  V30 52 1 49 53
M  V30 53 1 50 54
M  V30 54 1 50 55
M  V30 55 2 51 56
M  V30 56 2 55 57
M  V30 57 1 4 7
M  V30 58 1 8 10
M  V30 59 1 25 27
M  V30 60 1 35 38
M  V30 61 1 42 46
M  V30 62 1 49 51
M  V30 63 1 56 57
M  V30 64 1 3 58
M  V30 65 1 4 59
M  V30 66 1 5 60
M  V30 67 1 5 61
M  V30 68 1 5 62
M  V30 69 1 6 63
M  V30 70 1 6 64
M  V30 71 1 6 65
M  V30 72 1 8 66
M  V30 73 1 11 67
M  V30 74 1 13 68
M  V30 75 1 17 69
M  V30 76 1 18 70
M  V30 77 1 20 71
M  V30 78 1 20 72
M  V30 79 1 21 73
M  V30 80 1 22 74
M  V30 81 1 23 75
M  V30 82 1 24 76
M  V30 83 1 25 77
M  V30 84 1 27 78
M  V30 85 1 34 79
M  V30 86 1 35 80
M  V30 87 1 36 81
M  V30 88 1 38 82
M  V30 89 1 40 83
M  V30 90 1 42 84
M  V30 91 1 42 85
M  V30 92 1 43 86
M  V30 93 1 43 87
M  V30 94 1 43 88
M  V30 95 1 44 89
M  V30 96 1 44 90
M  V30 97 1 44 91
M  V30 98 1 46 92
M  V30 99 1 52 93
M  V30 100 1 53 94
M  V30 101 1 53 95
M  V30 102 1 53 96
M  V30 103 1 54 97
M  V30 104 1 55 98
M  V30 105 1 56 99
M  V30 106 1 57 100
M  V30 END BOND
M  V30 BEGIN COLLECTION
M  V30 MDLV30/STEABS ATOMS=(6 3 4 17 35 38 46)
M  V30 END COLLECTION
M  V30 END CTAB
M  END
>  <level_0>
3191

>  <index>
3191

>  <NO.>
3192

>  <Name>


>  <SMILES>
CN(C)[C@@H]1C(O)=C(C(=O)NCN[C@H](C(=O)NC2C(=O)N3[C@H]2SC(C)(C)[C@@H]3C(=O)O)c2ccccc2)C(=O)C2(O)C(O)=C3C(=O)c4c(O)cccc4C(C)(O)[C@H]3C[C@@H]12

>  <logBB>


>  <Class>
-1

>  <MW>
805.26

>  <nHBAcc>
14

>  <nHBDon>
9

>  <SLogP>
0.34

>  <TopoPSA>
266.37

>  <MMFF94 Energy>
136.17

$$$$
CN(C)[C@@H]1C(O)=C(C(=O)NCO)C(=O)C2(O)C(O)=C3C(=O)c4c(O)ccc(Cl)c4C(C)(O)[C@H]3C[C@@H]12
Actelion Java MolfileCreator 2.0

  0  0  0  0  0  0              0 V3000
M  V30 BEGIN CTAB
M  V30 COUNTS 60 63 0 0 0
M  V30 BEGIN ATOM
M  V30 1 Cl 4.3825 -2.0271 3.8136 0
M  V30 2 C 2.8089 -1.5281 4.3359 0
M  V30 3 C 1.7933 -1.1164 3.4471 0
M  V30 4 C 2.5799 -1.6037 5.7159 0
M  V30 5 C 0.5089 -0.8756 3.997 0
M  V30 6 C 1.9813 -0.9632 1.9359 0
M  V30 7 C 1.3339 -1.2887 6.2452 0
M  V30 8 C -0.6501 -0.6342 3.0922 0
M  V30 9 C 0.2999 -0.9348 5.3867 0
M  V30 10 O 3.3082 -0.5372 1.6102 0
M  V30 11 C 1.0671 0.1908 1.4095 0 CFG=2
M  V30 12 C 1.7362 -2.3167 1.2498 0
M  V30 13 O -1.7911 -0.9844 3.3793 0
M  V30 14 C -0.3751 -8.0E-4 1.7696 0
M  V30 15 O -0.9129 -0.6082 5.9219 0
M  V30 16 C 1.2308 0.4445 -0.1015 0
M  V30 17 C -1.3975 0.4006 0.9843 0
M  V30 18 C 0.254 1.5356 -0.6136 0 CFG=2
M  V30 19 O -2.7279 0.2676 1.3704 0
M  V30 20 C -1.2155 1.1516 -0.3361 0
M  V30 21 C 0.5006 1.8013 -2.1283 0 CFG=2
M  V30 22 O -1.988 2.3529 -0.1853 0
M  V30 23 C -1.8614 0.3297 -1.4876 0
M  V30 24 N -0.213 2.9721 -2.7002 0
M  V30 25 C 0.1197 0.5282 -2.8768 0
M  V30 26 O -3.0691 0.0643 -1.5125 0
M  V30 27 C -0.997 -0.1743 -2.5913 0
M  V30 28 C 0.0955 4.2159 -1.9832 0
M  V30 29 C 0.1174 3.1715 -4.1208 0
M  V30 30 O 1.0399 0.1554 -3.8497 0
M  V30 31 C -1.3404 -1.3836 -3.3954 0
M  V30 32 O -0.5432 -1.8398 -4.215 0
M  V30 33 N -2.5633 -1.9413 -3.1602 0
M  V30 34 C -2.9895 -3.1273 -3.8176 0
M  V30 35 O -4.3828 -3.1869 -3.6486 0
M  V30 36 H 3.3786 -1.9108 6.3889 0
M  V30 37 H 1.1864 -1.334 7.3205 0
M  V30 38 H 3.9354 -1.2051 1.9423 0
M  V30 39 H 1.3944 1.1171 1.9094 0
M  V30 40 H 0.6986 -2.652 1.3461 0
M  V30 41 H 2.3739 -3.0972 1.6815 0
M  V30 42 H 1.9969 -2.2829 0.1872 0
M  V30 43 H -0.9413 -0.8359 6.8653 0
M  V30 44 H 1.0738 -0.4892 -0.65 0
M  V30 45 H 2.2598 0.7623 -0.3106 0
M  V30 46 H 0.4998 2.445 -0.05 0
M  V30 47 H -2.7648 -0.2332 2.2194 0
M  V30 48 H 1.5811 1.9655 -2.253 0
M  V30 49 H -2.8722 2.0414 0.1 0
M  V30 50 H 1.1726 4.4167 -1.9555 0
M  V30 51 H -0.2844 4.203 -0.9585 0
M  V30 52 H -0.3978 5.0707 -2.4612 0
M  V30 53 H 1.1949 3.2928 -4.2801 0
M  V30 54 H -0.2406 2.3422 -4.7389 0
M  V30 55 H -0.3875 4.0626 -4.5124 0
M  V30 56 H 0.7218 -0.6646 -4.2932 0
M  V30 57 H -3.1805 -1.5322 -2.4598 0
M  V30 58 H -2.5203 -3.9925 -3.342 0
M  V30 59 H -2.7347 -3.105 -4.8813 0
M  V30 60 H -4.7237 -2.3592 -4.026 0
M  V30 END ATOM
M  V30 BEGIN BOND
M  V30 1 1 1 2
M  V30 2 2 2 3
M  V30 3 1 2 4
M  V30 4 1 3 5
M  V30 5 1 3 6
M  V30 6 2 4 7
M  V30 7 1 5 8
M  V30 8 2 5 9
M  V30 9 1 6 10
M  V30 10 1 6 11
M  V30 11 1 6 12
M  V30 12 2 8 13
M  V30 13 1 8 14
M  V30 14 1 9 15
M  V30 15 1 11 16
M  V30 16 2 14 17
M  V30 17 1 16 18
M  V30 18 1 17 19
M  V30 19 1 17 20
M  V30 20 1 18 21
M  V30 21 1 20 22
M  V30 22 1 20 23
M  V30 23 1 21 24
M  V30 24 1 21 25
M  V30 25 2 23 26
M  V30 26 1 23 27
M  V30 27 1 24 28
M  V30 28 1 24 29
M  V30 29 1 25 30
M  V30 30 1 27 31
M  V30 31 2 31 32
M  V30 32 1 31 33
M  V30 33 1 33 34
M  V30 34 1 34 35
M  V30 35 1 7 9
M  V30 36 1 11 14
M  V30 37 1 18 20
M  V30 38 2 25 27
M  V30 39 1 4 36
M  V30 40 1 7 37
M  V30 41 1 10 38
M  V30 42 1 11 39
M  V30 43 1 12 40
M  V30 44 1 12 41
M  V30 45 1 12 42
M  V30 46 1 15 43
M  V30 47 1 16 44
M  V30 48 1 16 45
M  V30 49 1 18 46
M  V30 50 1 19 47
M  V30 51 1 21 48
M  V30 52 1 22 49
M  V30 53 1 28 50
M  V30 54 1 28 51
M  V30 55 1 28 52
M  V30 56 1 29 53
M  V30 57 1 29 54
M  V30 58 1 29 55
M  V30 59 1 30 56
M  V30 60 1 33 57
M  V30 61 1 34 58
M  V30 62 1 34 59
M  V30 63 1 35 60
M  V30 END BOND
M  V30 BEGIN COLLECTION
M  V30 MDLV30/STEABS ATOMS=(3 11 18 21)
M  V30 END COLLECTION
M  V30 END CTAB
M  END
>  <level_0>
3192

>  <index>
3192

>  <NO.>
3193

>  <Name>


>  <SMILES>
CN(C)[C@@H]1C(O)=C(C(=O)NCO)C(=O)C2(O)C(O)=C3C(=O)c4c(O)ccc(Cl)c4C(C)(O)[C@H]3C[C@@H]12

>  <logBB>


>  <Class>
-1

>  <MW>
508.12

>  <nHBAcc>
10

>  <nHBDon>
7

>  <SLogP>
0.02

>  <TopoPSA>
187.86

>  <MMFF94 Energy>
51.352

$$$$
CN(C)[C@@H]1C(O)=C(C(=O)N[C@H](C(=O)O)N2CCN(CCO)CC2)C(=O)C2(O)C(O)=C3C(=O)c4c(O)cccc4C(C)(O)[C@H]3C[C@@H]12
Actelion Java MolfileCreator 2.0

  0  0  0  0  0  0              0 V3000
M  V30 BEGIN CTAB
M  V30 COUNTS 83 87 0 0 0
M  V30 BEGIN ATOM
M  V30 1 O 3.5368 -3.5368 1.6064 0
M  V30 2 C 3.0077 -3.0776 2.615 0
M  V30 3 C 3.629 -3.1637 3.9704 0
M  V30 4 C 1.7032 -2.3477 2.4969 0
M  V30 5 C 4.5972 -4.1389 4.2602 0
M  V30 6 C 3.2616 -2.2302 4.965 0
M  V30 7 C 1.1111 -2.2098 1.2925 0
M  V30 8 C 1.1099 -1.8068 3.7715 0 CFG=1
M  V30 9 O 4.9301 -5.0892 3.3366 0
M  V30 10 C 5.2172 -4.179 5.5104 0
M  V30 11 C 3.9054 -2.281 6.2156 0
M  V30 12 C 2.2028 -1.1712 4.6765 0
M  V30 13 O 1.6267 -2.7578 0.1214 0
M  V30 14 C -0.2241 -1.5084 1.0978 0
M  V30 15 C -0.1044 -0.8804 3.5351 0
M  V30 16 C 4.8744 -3.2461 6.4846 0
M  V30 17 O 1.5876 -0.7928 5.9148 0
M  V30 18 C 2.8847 0.0714 4.0803 0
M  V30 19 O -0.9433 -2.2444 0.1073 0
M  V30 20 C 0.0028 -0.0895 0.5528 0
M  V30 21 C -1.0246 -1.4118 2.4077 0 CFG=1
M  V30 22 O 1.1131 0.375 0.2811 0
M  V30 23 C -1.2092 0.7516 0.3615 0
M  V30 24 C -2.3106 -0.5297 2.2839 0 CFG=1
M  V30 25 C -2.2694 0.5244 1.1699 0
M  V30 26 C -1.2522 1.8564 -0.6489 0
M  V30 27 N -3.5192 -1.3865 2.3776 0
M  V30 28 O -3.4143 1.3193 1.1187 0
M  V30 29 O -2.2956 2.4806 -0.8406 0
M  V30 30 N -0.076 2.1133 -1.2991 0
M  V30 31 C -4.7108 -0.6734 2.8385 0
M  V30 32 C -3.8234 -2.1522 1.1718 0
M  V30 33 C 0.0612 3.0996 -2.3545 0 CFG=1
M  V30 34 N -0.7472 2.6556 -3.5122 0
M  V30 35 C -0.2077 4.5494 -1.8289 0
M  V30 36 C -0.2102 1.3882 -4.0639 0
M  V30 37 C -0.8012 3.653 -4.6002 0
M  V30 38 O -0.2952 5.5769 -2.4888 0
M  V30 39 O -0.1974 4.6631 -0.4761 0
M  V30 40 C -0.9781 0.8937 -5.3078 0
M  V30 41 C -1.5336 3.1489 -5.8695 0
M  V30 42 N -0.9666 1.8924 -6.3948 0
M  V30 43 C -1.7322 1.3837 -7.5478 0
M  V30 44 C -1.5823 2.2344 -8.8166 0
M  V30 45 O -2.2661 1.6043 -9.8979 0
M  V30 46 H 0.7014 -2.677 4.3115 0
M  V30 47 H 5.6742 -5.6215 3.6593 0
M  V30 48 H 5.9628 -4.9333 5.7442 0
M  V30 49 H 3.6457 -1.5664 6.9956 0
M  V30 50 H 2.4886 -3.1889 0.3425 0
M  V30 51 H 0.2182 0.1375 3.2914 0
M  V30 52 H -0.6769 -0.809 4.4689 0
M  V30 53 H 5.3544 -3.274 7.46 0
M  V30 54 H 1.1347 0.0581 5.7894 0
M  V30 55 H 3.6433 0.4631 4.7695 0
M  V30 56 H 2.1738 0.8897 3.9278 0
M  V30 57 H 3.3803 -0.1363 3.1266 0
M  V30 58 H -0.2562 -2.6493 -0.463 0
M  V30 59 H -1.3279 -2.4274 2.7046 0
M  V30 60 H -2.3317 0.0704 3.2059 0
M  V30 61 H -3.3516 1.9321 0.3491 0
M  V30 62 H 0.7629 1.6173 -1.0102 0
M  V30 63 H -5.1599 -0.0384 2.0692 0
M  V30 64 H -4.4958 -0.0612 3.7211 0
M  V30 65 H -5.4751 -1.3951 3.1505 0
M  V30 66 H -3.9358 -1.5214 0.2841 0
M  V30 67 H -3.0593 -2.9092 0.9854 0
M  V30 68 H -4.756 -2.7155 1.2982 0
M  V30 69 H 1.1268 3.1032 -2.6218 0
M  V30 70 H -0.2707 0.5915 -3.3132 0
M  V30 71 H 0.8499 1.5062 -4.3271 0
M  V30 72 H 0.2118 3.9734 -4.877 0
M  V30 73 H -1.3613 4.5333 -4.2719 0
M  V30 74 H -0.3924 5.6114 -0.3305 0
M  V30 75 H -2.0078 0.64 -5.0208 0
M  V30 76 H -0.4987 -0.0296 -5.655 0
M  V30 77 H -1.4568 3.9392 -6.6243 0
M  V30 78 H -2.5998 3.0219 -5.6366 0
M  V30 79 H -2.7974 1.2716 -7.3044 0
M  V30 80 H -1.3811 0.3735 -7.7984 0
M  V30 81 H -2.0138 3.2308 -8.6851 0
M  V30 82 H -0.5269 2.3354 -9.0902 0
M  V30 83 H -2.1104 2.1537 -10.685 0
M  V30 END ATOM
M  V30 BEGIN BOND
M  V30 1 2 1 2
M  V30 2 1 2 3
M  V30 3 1 2 4
M  V30 4 2 3 5
M  V30 5 1 3 6
M  V30 6 2 4 7
M  V30 7 1 4 8
M  V30 8 1 5 9
M  V30 9 1 5 10
M  V30 10 2 6 11
M  V30 11 1 6 12
M  V30 12 1 7 13
M  V30 13 1 7 14
M  V30 14 1 8 15
M  V30 15 2 10 16
M  V30 16 1 12 17
M  V30 17 1 12 18
M  V30 18 1 14 19
M  V30 19 1 14 20
M  V30 20 1 14 21
M  V30 21 2 20 22
M  V30 22 1 20 23
M  V30 23 1 21 24
M  V30 24 2 23 25
M  V30 25 1 23 26
M  V30 26 1 24 27
M  V30 27 1 25 28
M  V30 28 2 26 29
M  V30 29 1 26 30
M  V30 30 1 27 31
M  V30 31 1 27 32
M  V30 32 1 30 33
M  V30 33 1 33 34
M  V30 34 1 33 35
M  V30 35 1 34 36
M  V30 36 1 34 37
M  V30 37 2 35 38
M  V30 38 1 35 39
M  V30 39 1 36 40
M  V30 40 1 37 41
M  V30 41 1 40 42
M  V30 42 1 42 43
M  V30 43 1 43 44
M  V30 44 1 44 45
M  V30 45 1 8 12
M  V30 46 1 11 16
M  V30 47 1 15 21
M  V30 48 1 24 25
M  V30 49 1 41 42
M  V30 50 1 8 46
M  V30 51 1 9 47
M  V30 52 1 10 48
M  V30 53 1 11 49
M  V30 54 1 13 50
M  V30 55 1 15 51
M  V30 56 1 15 52
M  V30 57 1 16 53
M  V30 58 1 17 54
M  V30 59 1 18 55
M  V30 60 1 18 56
M  V30 61 1 18 57
M  V30 62 1 19 58
M  V30 63 1 21 59
M  V30 64 1 24 60
M  V30 65 1 28 61
M  V30 66 1 30 62
M  V30 67 1 31 63
M  V30 68 1 31 64
M  V30 69 1 31 65
M  V30 70 1 32 66
M  V30 71 1 32 67
M  V30 72 1 32 68
M  V30 73 1 33 69
M  V30 74 1 36 70
M  V30 75 1 36 71
M  V30 76 1 37 72
M  V30 77 1 37 73
M  V30 78 1 39 74
M  V30 79 1 40 75
M  V30 80 1 40 76
M  V30 81 1 41 77
M  V30 82 1 41 78
M  V30 83 1 43 79
M  V30 84 1 43 80
M  V30 85 1 44 81
M  V30 86 1 44 82
M  V30 87 1 45 83
M  V30 END BOND
M  V30 BEGIN COLLECTION
M  V30 MDLV30/STEABS ATOMS=(4 8 21 24 33)
M  V30 END COLLECTION
M  V30 END CTAB
M  END
>  <level_0>
3193

>  <index>
3193

>  <NO.>
3194

>  <Name>


>  <SMILES>
CN(C)[C@@H]1C(O)=C(C(=O)N[C@H](C(=O)O)N2CCN(CCO)CC2)C(=O)C2(O)C(O)=C3C(=O)c4c(O)cccc4C(C)(O)[C@H]3C[C@@H]12

>  <logBB>


>  <Class>
-1

>  <MW>
630.25

>  <nHBAcc>
13

>  <nHBDon>
8

>  <SLogP>
-1.56

>  <TopoPSA>
231.64

>  <MMFF94 Energy>
209

$$$$
CN(C)[C@@H]1C(O)=C(C(N)=O)C(=O)C2(O)C(O)=C3C(=O)c4c(O)ccc(Cl)c4[C@@H](O)[C@H]3C[C@@H]12
Actelion Java MolfileCreator 2.0

  0  0  0  0  0  0              0 V3000
M  V30 BEGIN CTAB
M  V30 COUNTS 53 56 0 0 0
M  V30 BEGIN ATOM
M  V30 1 Cl 4.0734 2.0351 3.747 0
M  V30 2 C 2.8337 0.9514 4.2732 0
M  V30 3 C 1.9227 0.3682 3.3737 0
M  V30 4 C 2.7821 0.6604 5.6381 0
M  V30 5 C 0.9794 -0.5599 3.871 0
M  V30 6 C 1.9501 0.6919 1.9002 0 CFG=1
M  V30 7 C 1.8229 -0.2195 6.1301 0
M  V30 8 C 0.0774 -1.2835 2.9212 0
M  V30 9 C 0.9281 -0.8276 5.2509 0
M  V30 10 O 2.8243 -0.2146 1.238 0
M  V30 11 C 0.539 0.6282 1.2869 0 CFG=2
M  V30 12 O -0.4818 -2.3373 3.2132 0
M  V30 13 C -0.1096 -0.7028 1.554 0
M  V30 14 O -0.0216 -1.6612 5.7677 0
M  V30 15 C 0.5616 0.9929 -0.2099 0
M  V30 16 C -0.8439 -1.359 0.6306 0
M  V30 17 C -0.7918 0.6757 -0.8885 0 CFG=2
M  V30 18 O -1.5207 -2.5461 0.8995 0
M  V30 19 C -1.0764 -0.8329 -0.7802 0
M  V30 20 C -0.8119 1.2174 -2.3523 0 CFG=2
M  V30 21 O -2.4391 -1.1197 -1.1086 0
M  V30 22 C -0.1994 -1.6055 -1.7826 0
M  V30 23 N -2.0062 2.0764 -2.5626 0
M  V30 24 C -0.4859 0.1804 -3.4305 0
M  V30 25 O 0.4563 -2.608 -1.487 0
M  V30 26 C -0.1923 -1.1174 -3.1908 0
M  V30 27 C -1.8477 3.0453 -3.6477 0
M  V30 28 C -3.265 1.3517 -2.7129 0
M  V30 29 O -0.4191 0.7259 -4.7134 0
M  V30 30 C 0.1749 -2.0129 -4.3292 0
M  V30 31 O 0.1251 -1.6342 -5.4982 0
M  V30 32 N 0.5749 -3.2731 -4.0282 0
M  V30 33 H 3.4868 1.1217 6.3272 0
M  V30 34 H 2.3268 1.7061 1.7277 0
M  V30 35 H 1.7861 -0.4188 7.1978 0
M  V30 36 H 3.6878 -0.179 1.6867 0
M  V30 37 H -0.0837 1.382 1.7934 0
M  V30 38 H 0.1696 -1.8639 6.6974 0
M  V30 39 H 0.7827 2.0645 -0.299 0
M  V30 40 H 1.3697 0.4649 -0.7314 0
M  V30 41 H -1.5616 1.2135 -0.3136 0
M  V30 42 H -1.2918 -2.8214 1.8203 0
M  V30 43 H 0.0344 1.9186 -2.4047 0
M  V30 44 H -2.6454 -1.9491 -0.6272 0
M  V30 45 H -1.9358 2.5984 -4.6423 0
M  V30 46 H -0.8894 3.5719 -3.5793 0
M  V30 47 H -2.6227 3.8172 -3.5689 0
M  V30 48 H -3.2352 0.6086 -3.5163 0
M  V30 49 H -3.5511 0.8667 -1.7777 0
M  V30 50 H -4.0858 2.0452 -2.9339 0
M  V30 51 H -0.2442 0.0103 -5.367 0
M  V30 52 H 0.6734 -3.5861 -3.0628 0
M  V30 53 H 0.8327 -3.9039 -4.7736 0
M  V30 END ATOM
M  V30 BEGIN BOND
M  V30 1 1 1 2
M  V30 2 2 2 3
M  V30 3 1 2 4
M  V30 4 1 3 5
M  V30 5 1 3 6
M  V30 6 2 4 7
M  V30 7 1 5 8
M  V30 8 2 5 9
M  V30 9 1 6 10
M  V30 10 1 6 11
M  V30 11 2 8 12
M  V30 12 1 8 13
M  V30 13 1 9 14
M  V30 14 1 11 15
M  V30 15 2 13 16
M  V30 16 1 15 17
M  V30 17 1 16 18
M  V30 18 1 16 19
M  V30 19 1 17 20
M  V30 20 1 19 21
M  V30 21 1 19 22
M  V30 22 1 20 23
M  V30 23 1 20 24
M  V30 24 2 22 25
M  V30 25 1 22 26
M  V30 26 1 23 27
M  V30 27 1 23 28
M  V30 28 1 24 29
M  V30 29 1 26 30
M  V30 30 2 30 31
M  V30 31 1 30 32
M  V30 32 1 7 9
M  V30 33 1 11 13
M  V30 34 1 17 19
M  V30 35 2 24 26
M  V30 36 1 4 33
M  V30 37 1 6 34
M  V30 38 1 7 35
M  V30 39 1 10 36
M  V30 40 1 11 37
M  V30 41 1 14 38
M  V30 42 1 15 39
M  V30 43 1 15 40
M  V30 44 1 17 41
M  V30 45 1 18 42
M  V30 46 1 20 43
M  V30 47 1 21 44
M  V30 48 1 27 45
M  V30 49 1 27 46
M  V30 50 1 27 47
M  V30 51 1 28 48
M  V30 52 1 28 49
M  V30 53 1 28 50
M  V30 54 1 29 51
M  V30 55 1 32 52
M  V30 56 1 32 53
M  V30 END BOND
M  V30 BEGIN COLLECTION
M  V30 MDLV30/STEABS ATOMS=(4 6 11 17 20)
M  V30 END COLLECTION
M  V30 END CTAB
M  END
>  <level_0>
3194

>  <index>
3194

>  <NO.>
3195

>  <Name>


>  <SMILES>
CN(C)[C@@H]1C(O)=C(C(N)=O)C(=O)C2(O)C(O)=C3C(=O)c4c(O)ccc(Cl)c4[C@@H](O)[C@H]3C[C@@H]12

>  <logBB>


>  <Class>
-1

>  <MW>
464.1

>  <nHBAcc>
9

>  <nHBDon>
6

>  <SLogP>
0.26

>  <TopoPSA>
181.62

>  <MMFF94 Energy>
80.536

$$$$
CN(C)[C@@H]1C(O)=C(C(N)=O)C(=O)C2(O)C(O)=C3C(=O)c4c(O)cccc4C(C)(O)[C@@H]3[C@H](O)[C@H]12
Actelion Java MolfileCreator 2.0

  0  0  0  0  0  0              0 V3000
M  V30 BEGIN CTAB
M  V30 COUNTS 57 60 0 0 0
M  V30 BEGIN ATOM
M  V30 1 O 2.5001 0.8059 -2.0158 0
M  V30 2 C 1.4321 1.1285 -1.5097 0
M  V30 3 C 1.1861 2.4029 -0.7814 0
M  V30 4 C 0.2753 0.2032 -1.5493 0
M  V30 5 C 2.2037 3.0246 -0.0465 0
M  V30 6 C -0.1099 2.9625 -0.8133 0
M  V30 7 C 0.4878 -1.1235 -1.4362 0
M  V30 8 C -1.1251 0.7639 -1.5672 0 CFG=2
M  V30 9 O 3.4481 2.4667 0.0294 0
M  V30 10 C 1.9468 4.2051 0.651 0
M  V30 11 C -0.3489 4.1531 -0.1074 0
M  V30 12 C -1.1842 2.3151 -1.6727 0
M  V30 13 O 1.7367 -1.7095 -1.5093 0
M  V30 14 C -0.6749 -2.0043 -1.0367 0
M  V30 15 C -2.0637 0.0725 -0.5245 0 CFG=1
M  V30 16 C 0.6712 4.7664 0.6203 0
M  V30 17 O -2.4849 2.7713 -1.2648 0
M  V30 18 C -0.977 2.7897 -3.1278 0
M  V30 19 O -1.4558 -2.22 -2.2293 0
M  V30 20 C -0.2591 -3.4014 -0.5364 0
M  V30 21 C -1.549 -1.2952 0.0071 0 CFG=2
M  V30 22 O -2.4997 0.8985 0.5488 0
M  V30 23 O -0.0575 -4.313 -1.3514 0
M  V30 24 C -0.1489 -3.6642 0.9322 0
M  V30 25 C -0.865 -1.264 1.4108 0 CFG=1
M  V30 26 C -0.4365 -2.6751 1.8105 0
M  V30 27 C 0.2696 -4.9969 1.4668 0
M  V30 28 N 0.1981 -0.2308 1.5627 0
M  V30 29 O -0.3909 -2.8436 3.1936 0
M  V30 30 O 0.3428 -5.2217 2.6738 0
M  V30 31 N 0.5718 -5.9657 0.5686 0
M  V30 32 C -0.1238 0.6881 2.6658 0
M  V30 33 C 1.5629 -0.7247 1.7814 0
M  V30 34 H -1.5305 0.4127 -2.5315 0
M  V30 35 H 4.0436 3.0561 0.5186 0
M  V30 36 H 2.7227 4.6946 1.2323 0
M  V30 37 H -1.3344 4.6155 -0.1237 0
M  V30 38 H 2.383 -1.0105 -1.7702 0
M  V30 39 H -2.9894 -0.146 -1.0769 0
M  V30 40 H 0.4682 5.6853 1.1658 0
M  V30 41 H -3.097 2.6393 -2.012 0
M  V30 42 H -0.0029 2.5003 -3.5348 0
M  V30 43 H -1.7537 2.3823 -3.7858 0
M  V30 44 H -1.0607 3.8814 -3.1972 0
M  V30 45 H -0.9344 -2.8621 -2.7554 0
M  V30 46 H -2.4601 -1.9027 0.1416 0
M  V30 47 H -2.6896 1.788 0.1833 0
M  V30 48 H -1.6863 -1.0161 2.1014 0
M  V30 49 H -0.099 -3.7609 3.4019 0
M  V30 50 H 0.5153 -5.8003 -0.4355 0
M  V30 51 H 0.8623 -6.8753 0.8979 0
M  V30 52 H -0.1434 0.1739 3.6339 0
M  V30 53 H -1.0911 1.1761 2.521 0
M  V30 54 H 0.6158 1.4953 2.7208 0
M  V30 55 H 1.6928 -1.1917 2.7645 0
M  V30 56 H 1.8738 -1.4416 1.019 0
M  V30 57 H 2.2736 0.1075 1.7171 0
M  V30 END ATOM
M  V30 BEGIN BOND
M  V30 1 2 1 2
M  V30 2 1 2 3
M  V30 3 1 2 4
M  V30 4 2 3 5
M  V30 5 1 3 6
M  V30 6 2 4 7
M  V30 7 1 4 8
M  V30 8 1 5 9
M  V30 9 1 5 10
M  V30 10 2 6 11
M  V30 11 1 6 12
M  V30 12 1 7 13
M  V30 13 1 7 14
M  V30 14 1 8 15
M  V30 15 2 10 16
M  V30 16 1 12 17
M  V30 17 1 12 18
M  V30 18 1 14 19
M  V30 19 1 14 20
M  V30 20 1 14 21
M  V30 21 1 15 22
M  V30 22 2 20 23
M  V30 23 1 20 24
M  V30 24 1 21 25
M  V30 25 2 24 26
M  V30 26 1 24 27
M  V30 27 1 25 28
M  V30 28 1 26 29
M  V30 29 2 27 30
M  V30 30 1 27 31
M  V30 31 1 28 32
M  V30 32 1 28 33
M  V30 33 1 8 12
M  V30 34 1 11 16
M  V30 35 1 15 21
M  V30 36 1 25 26
M  V30 37 1 8 34
M  V30 38 1 9 35
M  V30 39 1 10 36
M  V30 40 1 11 37
M  V30 41 1 13 38
M  V30 42 1 15 39
M  V30 43 1 16 40
M  V30 44 1 17 41
M  V30 45 1 18 42
M  V30 46 1 18 43
M  V30 47 1 18 44
M  V30 48 1 19 45
M  V30 49 1 21 46
M  V30 50 1 22 47
M  V30 51 1 25 48
M  V30 52 1 29 49
M  V30 53 1 31 50
M  V30 54 1 31 51
M  V30 55 1 32 52
M  V30 56 1 32 53
M  V30 57 1 32 54
M  V30 58 1 33 55
M  V30 59 1 33 56
M  V30 60 1 33 57
M  V30 END BOND
M  V30 BEGIN COLLECTION
M  V30 MDLV30/STEABS ATOMS=(4 8 15 21 25)
M  V30 END COLLECTION
M  V30 END CTAB
M  END
>  <level_0>
3195

>  <index>
3195

>  <NO.>
3196

>  <Name>


>  <SMILES>
CN(C)[C@@H]1C(O)=C(C(N)=O)C(=O)C2(O)C(O)=C3C(=O)c4c(O)cccc4C(C)(O)[C@@H]3[C@H](O)[C@H]12

>  <logBB>


>  <Class>
-1

>  <MW>
460.15

>  <nHBAcc>
10

>  <nHBDon>
7

>  <SLogP>
-1.24

>  <TopoPSA>
201.85

>  <MMFF94 Energy>
111.83

$$$$
CN(C)[C@@H]1C(O)=C(C(N)=O)C(=O)C2(O)C(O)=C3C(=O)c4c(O)cccc4C(C)(O)[C@H]3C[C@@H]12
Actelion Java MolfileCreator 2.0

  0  0  0  0  0  0              0 V3000
M  V30 BEGIN CTAB
M  V30 COUNTS 56 59 0 0 0
M  V30 BEGIN ATOM
M  V30 1 O -3.8696 0.2415 0.4025 0
M  V30 2 C -2.8335 0.5206 0.9991 0
M  V30 3 C -2.8145 1.0289 2.404 0
M  V30 4 C -1.5122 0.3024 0.3245 0
M  V30 5 C -3.9496 1.6336 2.9685 0
M  V30 6 C -1.6491 0.8696 3.1867 0
M  V30 7 C -1.4635 -0.1956 -0.9281 0
M  V30 8 C -0.2827 0.6776 1.108 0 CFG=1
M  V30 9 O -5.0703 1.8534 2.2186 0
M  V30 10 C -3.9462 2.0543 4.2997 0
M  V30 11 C -1.6691 1.2912 4.5295 0
M  V30 12 C -0.4008 0.228 2.591 0
M  V30 13 O -2.6001 -0.4854 -1.6774 0
M  V30 14 C -0.1625 -0.4183 -1.6869 0
M  V30 15 C 1.0328 0.2287 0.4338 0
M  V30 16 C -2.8077 1.8771 5.08 0
M  V30 17 O 0.7469 0.7245 3.2919 0
M  V30 18 C -0.4721 -1.2943 2.7956 0
M  V30 19 O -0.4113 -0.0593 -3.0453 0
M  V30 20 C 0.2223 -1.9102 -1.637 0
M  V30 21 C 0.9881 0.4207 -1.1028 0 CFG=1
M  V30 22 O -0.4956 -2.7829 -1.1413 0
M  V30 23 C 1.543 -2.288 -2.2118 0
M  V30 24 C 2.3749 0.0848 -1.7306 0 CFG=1
M  V30 25 C 2.5187 -1.3536 -2.2381 0
M  V30 26 C 1.8265 -3.6705 -2.6963 0
M  V30 27 N 2.8942 1.0629 -2.7141 0
M  V30 28 O 3.8109 -1.6385 -2.6836 0
M  V30 29 O 2.8964 -3.9724 -3.2205 0
M  V30 30 N 0.8506 -4.5984 -2.5327 0
M  V30 31 C 2.075 1.2597 -3.9025 0
M  V30 32 C 3.2721 2.3401 -2.1174 0
M  V30 33 H -0.2413 1.7795 1.1008 0
M  V30 34 H -5.7909 2.1765 2.7824 0
M  V30 35 H -4.8181 2.5278 4.7418 0
M  V30 36 H -0.7861 1.1704 5.1556 0
M  V30 37 H -3.391 -0.3175 -1.1084 0
M  V30 38 H 1.8582 0.8202 0.8507 0
M  V30 39 H 1.2563 -0.818 0.6652 0
M  V30 40 H -2.8009 2.2036 6.1174 0
M  V30 41 H 1.48 0.0975 3.1708 0
M  V30 42 H 0.4373 -1.7931 2.4465 0
M  V30 43 H -1.3297 -1.748 2.2884 0
M  V30 44 H -0.5521 -1.5366 3.8627 0
M  V30 45 H -1.3557 -0.2752 -3.1994 0
M  V30 46 H 0.7662 1.4811 -1.2832 0
M  V30 47 H 3.1045 0.1175 -0.907 0
M  V30 48 H 3.8341 -2.5412 -3.073 0
M  V30 49 H -0.0217 -4.3842 -2.0526 0
M  V30 50 H 1.0113 -5.5433 -2.8521 0
M  V30 51 H 1.1511 1.8057 -3.6875 0
M  V30 52 H 1.8297 0.309 -4.3859 0
M  V30 53 H 2.6307 1.8399 -4.6484 0
M  V30 54 H 2.4102 2.9094 -1.7548 0
M  V30 55 H 3.9639 2.1924 -1.2808 0
M  V30 56 H 3.8027 2.9613 -2.8479 0
M  V30 END ATOM
M  V30 BEGIN BOND
M  V30 1 2 1 2
M  V30 2 1 2 3
M  V30 3 1 2 4
M  V30 4 2 3 5
M  V30 5 1 3 6
M  V30 6 2 4 7
M  V30 7 1 4 8
M  V30 8 1 5 9
M  V30 9 1 5 10
M  V30 10 2 6 11
M  V30 11 1 6 12
M  V30 12 1 7 13
M  V30 13 1 7 14
M  V30 14 1 8 15
M  V30 15 2 10 16
M  V30 16 1 12 17
M  V30 17 1 12 18
M  V30 18 1 14 19
M  V30 19 1 14 20
M  V30 20 1 14 21
M  V30 21 2 20 22
M  V30 22 1 20 23
M  V30 23 1 21 24
M  V30 24 2 23 25
M  V30 25 1 23 26
M  V30 26 1 24 27
M  V30 27 1 25 28
M  V30 28 2 26 29
M  V30 29 1 26 30
M  V30 30 1 27 31
M  V30 31 1 27 32
M  V30 32 1 8 12
M  V30 33 1 11 16
M  V30 34 1 15 21
M  V30 35 1 24 25
M  V30 36 1 8 33
M  V30 37 1 9 34
M  V30 38 1 10 35
M  V30 39 1 11 36
M  V30 40 1 13 37
M  V30 41 1 15 38
M  V30 42 1 15 39
M  V30 43 1 16 40
M  V30 44 1 17 41
M  V30 45 1 18 42
M  V30 46 1 18 43
M  V30 47 1 18 44
M  V30 48 1 19 45
M  V30 49 1 21 46
M  V30 50 1 24 47
M  V30 51 1 28 48
M  V30 52 1 30 49
M  V30 53 1 30 50
M  V30 54 1 31 51
M  V30 55 1 31 52
M  V30 56 1 31 53
M  V30 57 1 32 54
M  V30 58 1 32 55
M  V30 59 1 32 56
M  V30 END BOND
M  V30 BEGIN COLLECTION
M  V30 MDLV30/STEABS ATOMS=(3 8 21 24)
M  V30 END COLLECTION
M  V30 END CTAB
M  END
>  <level_0>
3196

>  <index>
3196

>  <NO.>
3197

>  <Name>


>  <SMILES>
CN(C)[C@@H]1C(O)=C(C(N)=O)C(=O)C2(O)C(O)=C3C(=O)c4c(O)cccc4C(C)(O)[C@H]3C[C@@H]12

>  <logBB>


>  <Class>
-1

>  <MW>
444.15

>  <nHBAcc>
9

>  <nHBDon>
6

>  <SLogP>
-0.21

>  <TopoPSA>
181.62

>  <MMFF94 Energy>
102

$$$$
CN(C)[C@@H]1C(O)=C(C(N)=O)C(=O)C2(O)C(O)=C3C(=O)c4c(ccc(N)c4O)C[C@@H]3C[C@@H]12
Actelion Java MolfileCreator 2.0

  0  0  0  0  0  0              0 V3000
M  V30 BEGIN CTAB
M  V30 COUNTS 54 57 0 0 0
M  V30 BEGIN ATOM
M  V30 1 O 3.379 0.0 -1.6884 0
M  V30 2 C 2.702 -0.69 -0.9324 0
M  V30 3 C 3.0312 -2.106 -0.5771 0
M  V30 4 C 1.4275 -0.1327 -0.3742 0
M  V30 5 C 4.2753 -2.6712 -0.8873 0
M  V30 6 C 2.0636 -2.9025 0.0713 0
M  V30 7 C 0.8333 0.9188 -0.9717 0
M  V30 8 C 0.8464 -0.8552 0.8082 0 CFG=2
M  V30 9 O 5.2942 -1.9103 -1.4 0
M  V30 10 C 4.5479 -4.0276 -0.6361 0
M  V30 11 C 2.353 -4.2429 0.3662 0
M  V30 12 C 0.7123 -2.3382 0.4438 0
M  V30 13 O 1.3673 1.5602 -2.0858 0
M  V30 14 C -0.5374 1.4317 -0.5621 0
M  V30 15 C -0.4819 -0.2617 1.3113 0
M  V30 16 N 5.7886 -4.5775 -0.9653 0
M  V30 17 C 3.5904 -4.7931 0.0269 0
M  V30 18 O -1.2073 1.8272 -1.7626 0
M  V30 19 C -0.4114 2.6822 0.3206 0
M  V30 20 C -1.3464 0.3554 0.1859 0 CFG=1
M  V30 21 O 0.66 3.2368 0.5757 0
M  V30 22 C -1.6789 3.237 0.873 0
M  V30 23 C -2.6951 0.8898 0.7692 0 CFG=1
M  V30 24 C -2.721 2.3955 1.0619 0
M  V30 25 C -1.8024 4.6723 1.2639 0
M  V30 26 N -3.8394 0.3105 0.0201 0
M  V30 27 O -3.912 2.8213 1.6508 0
M  V30 28 O -2.8633 5.1489 1.6632 0
M  V30 29 N -0.6899 5.4418 1.1681 0
M  V30 30 C -5.0874 0.2849 0.7838 0
M  V30 31 C -4.0674 0.8933 -1.2992 0
M  V30 32 H 1.5608 -0.773 1.641 0
M  V30 33 H 6.1147 -2.3626 -1.1357 0
M  V30 34 H 1.6161 -4.8702 0.8647 0
M  V30 35 H 0.3108 -2.8862 1.3053 0
M  V30 36 H 0.0207 -2.4856 -0.3952 0
M  V30 37 H 2.2858 1.2183 -2.2159 0
M  V30 38 H -1.0521 -1.0314 1.8467 0
M  V30 39 H -0.2551 0.5135 2.056 0
M  V30 40 H 6.2291 -4.2473 -1.818 0
M  V30 41 H 5.941 -5.5578 -0.7568 0
M  V30 42 H 3.7895 -5.834 0.2689 0
M  V30 43 H -0.4926 2.1069 -2.3735 0
M  V30 44 H -1.5727 -0.4595 -0.5179 0
M  V30 45 H -2.7711 0.4332 1.7674 0
M  V30 46 H -3.8863 3.7977 1.778 0
M  V30 47 H 0.211 5.0524 0.8945 0
M  V30 48 H -0.7391 6.4174 1.426 0
M  V30 49 H -5.57 1.2641 0.8564 0
M  V30 50 H -4.9322 -0.1091 1.7941 0
M  V30 51 H -5.801 -0.3934 0.3014 0
M  V30 52 H -4.1964 1.98 -1.2679 0
M  V30 53 H -3.2547 0.6415 -1.9832 0
M  V30 54 H -4.9668 0.4662 -1.7596 0
M  V30 END ATOM
M  V30 BEGIN BOND
M  V30 1 2 1 2
M  V30 2 1 2 3
M  V30 3 1 2 4
M  V30 4 2 3 5
M  V30 5 1 3 6
M  V30 6 2 4 7
M  V30 7 1 4 8
M  V30 8 1 5 9
M  V30 9 1 5 10
M  V30 10 2 6 11
M  V30 11 1 6 12
M  V30 12 1 7 13
M  V30 13 1 7 14
M  V30 14 1 8 15
M  V30 15 1 10 16
M  V30 16 2 10 17
M  V30 17 1 14 18
M  V30 18 1 14 19
M  V30 19 1 14 20
M  V30 20 2 19 21
M  V30 21 1 19 22
M  V30 22 1 20 23
M  V30 23 2 22 24
M  V30 24 1 22 25
M  V30 25 1 23 26
M  V30 26 1 24 27
M  V30 27 2 25 28
M  V30 28 1 25 29
M  V30 29 1 26 30
M  V30 30 1 26 31
M  V30 31 1 8 12
M  V30 32 1 11 17
M  V30 33 1 15 20
M  V30 34 1 23 24
M  V30 35 1 8 32
M  V30 36 1 9 33
M  V30 37 1 11 34
M  V30 38 1 12 35
M  V30 39 1 12 36
M  V30 40 1 13 37
M  V30 41 1 15 38
M  V30 42 1 15 39
M  V30 43 1 16 40
M  V30 44 1 16 41
M  V30 45 1 17 42
M  V30 46 1 18 43
M  V30 47 1 20 44
M  V30 48 1 23 45
M  V30 49 1 27 46
M  V30 50 1 29 47
M  V30 51 1 29 48
M  V30 52 1 30 49
M  V30 53 1 30 50
M  V30 54 1 30 51
M  V30 55 1 31 52
M  V30 56 1 31 53
M  V30 57 1 31 54
M  V30 END BOND
M  V30 BEGIN COLLECTION
M  V30 MDLV30/STEABS ATOMS=(3 8 20 23)
M  V30 END COLLECTION
M  V30 END CTAB
M  END
>  <level_0>
3197

>  <index>
3197

>  <NO.>
3198

>  <Name>


>  <SMILES>
CN(C)[C@@H]1C(O)=C(C(N)=O)C(=O)C2(O)C(O)=C3C(=O)c4c(ccc(N)c4O)C[C@@H]3C[C@@H]12

>  <logBB>


>  <Class>
-1

>  <MW>
429.15

>  <nHBAcc>
9

>  <nHBDon>
6

>  <SLogP>
-0.3

>  <TopoPSA>
187.41

>  <MMFF94 Energy>
93.85

$$$$
CN[C@@H]1[C@H](O[C@@H]2C(O[C@@H]3[C@@H](O)[C@@H](O)[C@@H](NC(=N)N)[C@H](O)[C@@H]3NC(=N)N)O[C@@H](C)C2(O)CO)O[C@@H](CO)[C@@H](O)[C@H]1O
Actelion Java MolfileCreator 2.0

  0  0  0  0  0  0              0 V3000
M  V30 BEGIN CTAB
M  V30 COUNTS 81 83 0 0 0
M  V30 BEGIN ATOM
M  V30 1 O 0.7886 -2.7622 -1.7355 0
M  V30 2 C 0.807 -1.3335 -1.704 0 CFG=1
M  V30 3 C 1.868 -3.3102 -2.516 0 CFG=2
M  V30 4 O 2.0239 -0.8906 -1.0825 0
M  V30 5 C 0.6625 -0.7072 -3.1269 0 CFG=1
M  V30 6 C 1.8044 -2.8233 -3.9674 0 CFG=2
M  V30 7 C 1.76 -4.8335 -2.4089 0
M  V30 8 C 1.9194 -0.8264 0.3475 0 CFG=1
M  V30 9 N 0.5977 0.7795 -2.9926 0
M  V30 10 C 1.7861 -1.2844 -4.031 0 CFG=1
M  V30 11 O 0.6116 -3.2906 -4.6318 0
M  V30 12 O 1.9739 -5.2386 -1.0572 0
M  V30 13 C 3.293 -0.8196 1.0215 0
M  V30 14 C 1.3243 0.5078 0.8347 0
M  V30 15 C 0.6325 1.4874 -4.2661 0
M  V30 16 O 1.5859 -0.9372 -5.4137 0
M  V30 17 O 3.7881 -2.1539 1.1692 0
M  V30 18 C 2.9613 -0.1545 2.3607 0 CFG=1
M  V30 19 C 4.3515 -0.0026 0.2517 0
M  V30 20 O 1.9991 0.8712 2.0498 0
M  V30 21 O -0.0678 0.3426 1.0907 0
M  V30 22 C 2.3577 -1.0804 3.4139 0
M  V30 23 O 4.6607 -0.6518 -0.986 0
M  V30 24 C -0.8278 1.5569 0.9639 0 CFG=2
M  V30 25 C -0.5456 2.5616 2.0905 0 CFG=1
M  V30 26 C -2.3379 1.1997 0.9225 0 CFG=1
M  V30 27 O -1.1976 3.8166 1.807 0
M  V30 28 C -1.0302 2.0555 3.4544 0 CFG=1
M  V30 29 N -2.5628 0.1465 -0.0747 0
M  V30 30 C -2.8872 0.7179 2.2904 0 CFG=2
M  V30 31 O -0.7911 3.1098 4.4134 0
M  V30 32 C -2.53 1.6715 3.4444 0 CFG=2
M  V30 33 C -2.6371 0.3097 -1.408 0
M  V30 34 O -2.4096 -0.5978 2.6174 0
M  V30 35 N -3.3488 2.8813 3.3951 0
M  V30 36 N -2.5276 1.3941 -2.0798 0
M  V30 37 N -2.8062 -0.8477 -2.0575 0
M  V30 38 C -4.6213 3.0127 3.8137 0
M  V30 39 N -5.3375 2.1437 4.4236 0
M  V30 40 N -5.1461 4.2086 3.5298 0
M  V30 41 H -0.0538 -1.0213 -1.1067 0
M  V30 42 H 2.8151 -3.0027 -2.0553 0
M  V30 43 H -0.2963 -1.0321 -3.552 0
M  V30 44 H 2.6543 -3.2022 -4.547 0
M  V30 45 H 2.5101 -5.3294 -3.0316 0
M  V30 46 H 0.7654 -5.1883 -2.6975 0
M  V30 47 H 1.3361 -1.6877 0.7003 0
M  V30 48 H -0.3143 0.9981 -2.5668 0
M  V30 49 H 2.7598 -0.8843 -3.7261 0
M  V30 50 H 0.7514 -4.224 -4.8722 0
M  V30 51 H 1.4054 -4.6617 -0.5111 0
M  V30 52 H 1.4927 1.2958 0.0907 0
M  V30 53 H 0.407 2.5447 -4.0908 0
M  V30 54 H 1.6278 1.4535 -4.7174 0
M  V30 55 H -0.1158 1.1045 -4.9671 0
M  V30 56 H 0.8203 -1.4741 -5.7012 0
M  V30 57 H 4.2349 -2.3679 0.3243 0
M  V30 58 H 3.8423 0.3275 2.7991 0
M  V30 59 H 4.0315 1.0228 0.0418 0
M  V30 60 H 5.2858 0.0376 0.8214 0
M  V30 61 H 2.0899 -0.5052 4.3073 0
M  V30 62 H 3.0623 -1.8638 3.7075 0
M  V30 63 H 1.4329 -1.5505 3.0645 0
M  V30 64 H 3.8328 -0.6173 -1.5093 0
M  V30 65 H -0.5794 2.0192 -5.0E-4 0
M  V30 66 H 0.5212 2.7954 2.1488 0
M  V30 67 H -2.9078 2.0948 0.6422 0
M  V30 68 H -0.849 4.4214 2.4971 0
M  V30 69 H -0.4337 1.189 3.7616 0
M  V30 70 H -2.2128 -0.7554 0.231 0
M  V30 71 H -3.9793 0.6302 2.217 0
M  V30 72 H -1.6091 3.21 4.9393 0
M  V30 73 H -2.7181 1.172 4.4038 0
M  V30 74 H -3.0116 -1.2279 2.1819 0
M  V30 75 H -2.962 3.6321 2.8267 0
M  V30 76 H -2.427 2.1932 -1.454 0
M  V30 77 H -2.9088 -0.785 -3.0628 0
M  V30 78 H -3.1978 -1.6574 -1.6036 0
M  V30 79 H -4.8088 1.2885 4.584 0
M  V30 80 H -6.101 4.3678 3.8242 0
M  V30 81 H -4.6367 4.9718 3.1186 0
M  V30 END ATOM
M  V30 BEGIN BOND
M  V30 1 1 1 2
M  V30 2 1 1 3
M  V30 3 1 2 4
M  V30 4 1 2 5
M  V30 5 1 3 6
M  V30 6 1 3 7
M  V30 7 1 4 8
M  V30 8 1 5 9
M  V30 9 1 5 10
M  V30 10 1 6 11
M  V30 11 1 7 12
M  V30 12 1 8 13
M  V30 13 1 8 14
M  V30 14 1 9 15
M  V30 15 1 10 16
M  V30 16 1 13 17
M  V30 17 1 13 18
M  V30 18 1 13 19
M  V30 19 1 14 20
M  V30 20 1 14 21
M  V30 21 1 18 22
M  V30 22 1 19 23
M  V30 23 1 21 24
M  V30 24 1 24 25
M  V30 25 1 24 26
M  V30 26 1 25 27
M  V30 27 1 25 28
M  V30 28 1 26 29
M  V30 29 1 26 30
M  V30 30 1 28 31
M  V30 31 1 28 32
M  V30 32 1 29 33
M  V30 33 1 30 34
M  V30 34 1 32 35
M  V30 35 2 33 36
M  V30 36 1 33 37
M  V30 37 1 35 38
M  V30 38 2 38 39
M  V30 39 1 38 40
M  V30 40 1 6 10
M  V30 41 1 18 20
M  V30 42 1 30 32
M  V30 43 1 2 41
M  V30 44 1 3 42
M  V30 45 1 5 43
M  V30 46 1 6 44
M  V30 47 1 7 45
M  V30 48 1 7 46
M  V30 49 1 8 47
M  V30 50 1 9 48
M  V30 51 1 10 49
M  V30 52 1 11 50
M  V30 53 1 12 51
M  V30 54 1 14 52
M  V30 55 1 15 53
M  V30 56 1 15 54
M  V30 57 1 15 55
M  V30 58 1 16 56
M  V30 59 1 17 57
M  V30 60 1 18 58
M  V30 61 1 19 59
M  V30 62 1 19 60
M  V30 63 1 22 61
M  V30 64 1 22 62
M  V30 65 1 22 63
M  V30 66 1 23 64
M  V30 67 1 24 65
M  V30 68 1 25 66
M  V30 69 1 26 67
M  V30 70 1 27 68
M  V30 71 1 28 69
M  V30 72 1 29 70
M  V30 73 1 30 71
M  V30 74 1 31 72
M  V30 75 1 32 73
M  V30 76 1 34 74
M  V30 77 1 35 75
M  V30 78 1 36 76
M  V30 79 1 37 77
M  V30 80 1 37 78
M  V30 81 1 39 79
M  V30 82 1 40 80
M  V30 83 1 40 81
M  V30 END BOND
M  V30 BEGIN COLLECTION
M  V30 MDLV30/STEABS ATOMS=(13 2 3 5 6 8 10 18 24 25 26 28 30 32)
M  V30 END COLLECTION
M  V30 END CTAB
M  END
>  <level_0>
3288

>  <index>
3288

>  <NO.>
3289

>  <Name>


>  <SMILES>
CN[C@@H]1[C@H](O[C@@H]2C(O[C@@H]3[C@@H](O)[C@@H](O)[C@@H](NC(=N)N)[C@H](O)[C@@H]3NC(=N)N)O[C@@H](C)C2(O)CO)O[C@@H](CO)[C@@H](O)[C@H]1O

>  <logBB>


>  <Class>
-1

>  <MW>
583.28

>  <nHBAcc>
15

>  <nHBDon>
15

>  <SLogP>
-7.95

>  <TopoPSA>
334.59

>  <MMFF94 Energy>
-7.6307

$$$$
CN[C@@H]1[C@H](O[C@@H]2[C@@H](O[C@@H]3[C@@H](O)[C@@H](O)[C@@H](NC(=N)N)[C@H](O)[C@@H]3NC(=N)N)OC(C)C2(O)C=O)O[C@@H](CO)[C@@H](O)[C@H]1O
Actelion Java MolfileCreator 2.0

  0  0  0  0  0  0              0 V3000
M  V30 BEGIN CTAB
M  V30 COUNTS 79 81 0 0 0
M  V30 BEGIN ATOM
M  V30 1 O 3.5611 -2.2146 3.0857 0
M  V30 2 C 2.4357 -1.7144 3.1067 0
M  V30 3 C 1.4858 -1.8046 1.9222 0
M  V30 4 O 2.0604 -2.7186 0.9635 0
M  V30 5 C 1.2649 -0.4309 1.2853 0 CFG=2
M  V30 6 C 0.0609 -2.2735 2.2541 0
M  V30 7 O 1.137 0.5589 2.3257 0
M  V30 8 C -0.0717 -0.663 0.5636 0 CFG=2
M  V30 9 O -0.8488 -1.4918 1.4454 0
M  V30 10 C -0.4012 -2.1088 3.6961 0
M  V30 11 C 1.2782 1.9006 1.8335 0 CFG=2
M  V30 12 O 0.1661 -1.3368 -0.6665 0
M  V30 13 O 2.6386 2.1715 1.4956 0
M  V30 14 C 0.7242 2.9023 2.8911 0 CFG=1
M  V30 15 C -1.0153 -1.5831 -1.4376 0 CFG=2
M  V30 16 C 3.5349 2.1435 2.6155 0 CFG=2
M  V30 17 N -0.6737 2.6213 3.3136 0
M  V30 18 C 1.6584 2.8688 4.1274 0 CFG=1
M  V30 19 C -0.6316 -2.679 -2.4388 0 CFG=1
M  V30 20 C -1.6124 -0.3593 -2.1654 0 CFG=1
M  V30 21 C 3.112 3.1326 3.7135 0 CFG=2
M  V30 22 C 4.9395 2.4307 2.0743 0
M  V30 23 C -1.6473 2.9296 2.2776 0
M  V30 24 O 1.2814 3.8591 5.0981 0
M  V30 25 O -0.1261 -3.8184 -1.7104 0
M  V30 26 C -1.8429 -3.1413 -3.2432 0 CFG=1
M  V30 27 N -0.6804 0.2892 -3.1035 0
M  V30 28 C -2.8677 -0.7951 -2.9733 0 CFG=2
M  V30 29 O 3.2074 4.4952 3.2564 0
M  V30 30 O 5.8879 2.5227 3.1288 0
M  V30 31 O -2.7534 -3.8301 -2.3549 0
M  V30 32 C -2.5799 -1.9803 -3.9369 0 CFG=2
M  V30 33 C 0.3807 1.0473 -2.7606 0
M  V30 34 O -3.318 0.363 -3.7097 0
M  V30 35 N -3.8373 -2.5194 -4.4691 0
M  V30 36 N 0.7184 1.3753 -1.569 0
M  V30 37 N 1.0668 1.4549 -3.8375 0
M  V30 38 C -4.5821 -1.9667 -5.4391 0
M  V30 39 N -4.3376 -0.8073 -5.9348 0
M  V30 40 N -5.6109 -2.7293 -5.8234 0
M  V30 41 H 2.0944 -1.1391 3.9833 0
M  V30 42 H 3.0253 -2.729 1.1355 0
M  V30 43 H 2.0773 -0.1757 0.5948 0
M  V30 44 H -0.0787 -3.3202 1.959 0
M  V30 45 H -0.6271 0.2629 0.4043 0
M  V30 46 H 0.1945 -2.7176 4.3822 0
M  V30 47 H -0.3584 -1.0617 4.0141 0
M  V30 48 H -1.449 -2.4148 3.793 0
M  V30 49 H 0.6935 2.0204 0.9195 0
M  V30 50 H 0.7611 3.9197 2.4794 0
M  V30 51 H -1.7737 -1.9951 -0.7589 0
M  V30 52 H 3.5387 1.1327 3.0423 0
M  V30 53 H -0.7463 1.6368 3.573 0
M  V30 54 H 1.5916 1.8937 4.6253 0
M  V30 55 H 0.1733 -2.3422 -3.1016 0
M  V30 56 H -1.9211 0.4026 -1.44 0
M  V30 57 H 3.7567 3.0501 4.5964 0
M  V30 58 H 4.9585 3.3626 1.4985 0
M  V30 59 H 5.2428 1.6279 1.3927 0
M  V30 60 H -2.6556 2.7659 2.6708 0
M  V30 61 H -1.583 3.9787 1.972 0
M  V30 62 H -1.5306 2.2925 1.3972 0
M  V30 63 H 1.4066 4.7171 4.6494 0
M  V30 64 H 0.5162 -3.4384 -1.0693 0
M  V30 65 H -1.5363 -3.8895 -3.9841 0
M  V30 66 H -1.1668 0.6149 -3.938 0
M  V30 67 H -3.6711 -1.0659 -2.2772 0
M  V30 68 H 4.1532 4.729 3.3033 0
M  V30 69 H 6.7699 2.5456 2.716 0
M  V30 70 H -2.1713 -4.4216 -1.8291 0
M  V30 71 H -1.9636 -1.6264 -4.7734 0
M  V30 72 H -3.803 0.0259 -4.502 0
M  V30 73 H -4.2001 -3.3029 -3.9337 0
M  V30 74 H 1.5573 1.9564 -1.6197 0
M  V30 75 H 1.8864 2.0363 -3.7565 0
M  V30 76 H 0.8569 1.0749 -4.7482 0
M  V30 77 H -5.0374 -0.6082 -6.6548 0
M  V30 78 H -6.2557 -2.4302 -6.5392 0
M  V30 79 H -5.7158 -3.6706 -5.4758 0
M  V30 END ATOM
M  V30 BEGIN BOND
M  V30 1 2 1 2
M  V30 2 1 2 3
M  V30 3 1 3 4
M  V30 4 1 3 5
M  V30 5 1 3 6
M  V30 6 1 5 7
M  V30 7 1 5 8
M  V30 8 1 6 9
M  V30 9 1 6 10
M  V30 10 1 7 11
M  V30 11 1 8 12
M  V30 12 1 11 13
M  V30 13 1 11 14
M  V30 14 1 12 15
M  V30 15 1 13 16
M  V30 16 1 14 17
M  V30 17 1 14 18
M  V30 18 1 15 19
M  V30 19 1 15 20
M  V30 20 1 16 21
M  V30 21 1 16 22
M  V30 22 1 17 23
M  V30 23 1 18 24
M  V30 24 1 19 25
M  V30 25 1 19 26
M  V30 26 1 20 27
M  V30 27 1 20 28
M  V30 28 1 21 29
M  V30 29 1 22 30
M  V30 30 1 26 31
M  V30 31 1 26 32
M  V30 32 1 27 33
M  V30 33 1 28 34
M  V30 34 1 32 35
M  V30 35 2 33 36
M  V30 36 1 33 37
M  V30 37 1 35 38
M  V30 38 2 38 39
M  V30 39 1 38 40
M  V30 40 1 8 9
M  V30 41 1 18 21
M  V30 42 1 28 32
M  V30 43 1 2 41
M  V30 44 1 4 42
M  V30 45 1 5 43
M  V30 46 1 6 44
M  V30 47 1 8 45
M  V30 48 1 10 46
M  V30 49 1 10 47
M  V30 50 1 10 48
M  V30 51 1 11 49
M  V30 52 1 14 50
M  V30 53 1 15 51
M  V30 54 1 16 52
M  V30 55 1 17 53
M  V30 56 1 18 54
M  V30 57 1 19 55
M  V30 58 1 20 56
M  V30 59 1 21 57
M  V30 60 1 22 58
M  V30 61 1 22 59
M  V30 62 1 23 60
M  V30 63 1 23 61
M  V30 64 1 23 62
M  V30 65 1 24 63
M  V30 66 1 25 64
M  V30 67 1 26 65
M  V30 68 1 27 66
M  V30 69 1 28 67
M  V30 70 1 29 68
M  V30 71 1 30 69
M  V30 72 1 31 70
M  V30 73 1 32 71
M  V30 74 1 34 72
M  V30 75 1 35 73
M  V30 76 1 36 74
M  V30 77 1 37 75
M  V30 78 1 37 76
M  V30 79 1 39 77
M  V30 80 1 40 78
M  V30 81 1 40 79
M  V30 END BOND
M  V30 BEGIN COLLECTION
M  V30 MDLV30/STEABS ATOMS=(13 5 8 11 14 15 16 18 19 20 21 26 28 32)
M  V30 END COLLECTION
M  V30 END CTAB
M  END
>  <level_0>
3290

>  <index>
3290

>  <NO.>
3291

>  <Name>


>  <SMILES>
CN[C@@H]1[C@H](O[C@@H]2[C@@H](O[C@@H]3[C@@H](O)[C@@H](O)[C@@H](NC(=N)N)[C@H](O)[C@@H]3NC(=N)N)OC(C)C2(O)C=O)O[C@@H](CO)[C@@H](O)[C@H]1O

>  <logBB>


>  <Class>
-1

>  <MW>
581.27

>  <nHBAcc>
15

>  <nHBDon>
14

>  <SLogP>
-7.74

>  <TopoPSA>
331.43

>  <MMFF94 Energy>
-28.172

$$$$
CN[C@H]1[C@H](O)[C@H](O[C@H]2[C@@H](N)C[C@H](N)[C@H](O[C@@H]3O[C@H](CN)CC[C@@H]3N)[C@@H]2O)OCC1(C)O
Actelion Java MolfileCreator 2.0

  0  0  0  0  0  0              0 V3000
M  V30 BEGIN CTAB
M  V30 COUNTS 70 72 0 0 0
M  V30 BEGIN ATOM
M  V30 1 O -1.4232 2.2146 -3.4819 0
M  V30 2 C -1.5432 1.2644 -2.4158 0 CFG=1
M  V30 3 C -2.1533 1.8069 -4.6499 0 CFG=1
M  V30 4 O -0.7201 1.6704 -1.3229 0
M  V30 5 C -3.0287 1.1946 -1.9426 0 CFG=1
M  V30 6 C -3.6529 1.7071 -4.344 0
M  V30 7 C -1.846 2.8105 -5.78 0
M  V30 8 C 0.6819 1.4176 -1.5509 0 CFG=2
M  V30 9 N -3.5044 2.4759 -1.37 0
M  V30 10 C -3.9014 0.7967 -3.1412 0
M  V30 11 N -2.2149 4.1865 -5.4285 0
M  V30 12 C 1.0877 0.1065 -0.8504 0 CFG=2
M  V30 13 C 1.472 2.6065 -0.9473 0 CFG=1
M  V30 14 O 0.3639 -1.0065 -1.4078 0
M  V30 15 C 0.8246 0.1926 0.6658 0 CFG=1
M  V30 16 N 1.0707 3.8687 -1.5977 0
M  V30 17 C 1.2447 2.7027 0.5732 0
M  V30 18 O 1.2902 -1.031 1.2844 0
M  V30 19 C 1.5764 1.3904 1.2956 0 CFG=2
M  V30 20 C 0.2155 -1.7991 1.8442 0 CFG=2
M  V30 21 N 3.0351 1.1683 1.286 0
M  V30 22 O -0.3003 -1.2003 3.0291 0
M  V30 23 C 0.7271 -3.2383 2.0863 0 CFG=1
M  V30 24 C 0.6395 -1.1679 4.1047 0
M  V30 25 O 1.3377 -3.7416 0.8862 0
M  V30 26 C 1.7315 -3.2594 3.2624 0 CFG=1
M  V30 27 C 1.1074 -2.5735 4.5102 0
M  V30 28 N 2.2116 -4.6226 3.6277 0
M  V30 29 O 2.1298 -2.4599 5.5124 0
M  V30 30 C -0.056 -3.358 5.1341 0
M  V30 31 C 3.4748 -4.9568 2.9772 0
M  V30 32 H -1.2337 0.275 -2.7725 0
M  V30 33 H -1.7766 0.8252 -4.966 0
M  V30 34 H -3.1198 0.4413 -1.1523 0
M  V30 35 H -4.1935 1.326 -5.2177 0
M  V30 36 H -4.0639 2.6982 -4.1183 0
M  V30 37 H -0.7685 2.7945 -5.9803 0
M  V30 38 H -2.3654 2.5197 -6.6987 0
M  V30 39 H 0.8847 1.3457 -2.6276 0
M  V30 40 H -3.0828 3.2332 -1.9123 0
M  V30 41 H -4.5117 2.5626 -1.4812 0
M  V30 42 H -4.9652 0.8091 -2.875 0
M  V30 43 H -3.6662 -0.2374 -3.4235 0
M  V30 44 H -1.7782 4.8267 -6.09 0
M  V30 45 H -1.783 4.3882 -4.5221 0
M  V30 46 H 2.1473 -0.1001 -1.0432 0
M  V30 47 H 2.5407 2.463 -1.1446 0
M  V30 48 H 0.7067 -1.8031 -0.9632 0
M  V30 49 H -0.2515 0.3166 0.8463 0
M  V30 50 H 1.274 4.657 -0.9869 0
M  V30 51 H 0.0506 3.8429 -1.7015 0
M  V30 52 H 0.1977 2.9617 0.7817 0
M  V30 53 H 1.8468 3.5206 0.9912 0
M  V30 54 H 1.2769 1.4733 2.3472 0
M  V30 55 H -0.5944 -1.8566 1.1068 0
M  V30 56 H 3.4865 1.8737 1.8693 0
M  V30 57 H 3.2163 0.2698 1.7391 0
M  V30 58 H -0.1243 -3.8883 2.3162 0
M  V30 59 H 1.4931 -0.5336 3.836 0
M  V30 60 H 0.1594 -0.6679 4.954 0
M  V30 61 H 2.0751 -3.1316 0.6911 0
M  V30 62 H 2.6163 -2.6703 2.9796 0
M  V30 63 H 1.5146 -5.3068 3.3238 0
M  V30 64 H 2.5539 -3.343 5.5314 0
M  V30 65 H 0.2657 -4.3466 5.4789 0
M  V30 66 H -0.895 -3.4869 4.4446 0
M  V30 67 H -0.429 -2.8389 6.0252 0
M  V30 68 H 3.7783 -5.9643 3.278 0
M  V30 69 H 4.2702 -4.2714 3.287 0
M  V30 70 H 3.3944 -4.945 1.887 0
M  V30 END ATOM
M  V30 BEGIN BOND
M  V30 1 1 1 2
M  V30 2 1 1 3
M  V30 3 1 2 4
M  V30 4 1 2 5
M  V30 5 1 3 6
M  V30 6 1 3 7
M  V30 7 1 4 8
M  V30 8 1 5 9
M  V30 9 1 5 10
M  V30 10 1 7 11
M  V30 11 1 8 12
M  V30 12 1 8 13
M  V30 13 1 12 14
M  V30 14 1 12 15
M  V30 15 1 13 16
M  V30 16 1 13 17
M  V30 17 1 15 18
M  V30 18 1 15 19
M  V30 19 1 18 20
M  V30 20 1 19 21
M  V30 21 1 20 22
M  V30 22 1 20 23
M  V30 23 1 22 24
M  V30 24 1 23 25
M  V30 25 1 23 26
M  V30 26 1 24 27
M  V30 27 1 26 28
M  V30 28 1 27 29
M  V30 29 1 27 30
M  V30 30 1 28 31
M  V30 31 1 6 10
M  V30 32 1 17 19
M  V30 33 1 26 27
M  V30 34 1 2 32
M  V30 35 1 3 33
M  V30 36 1 5 34
M  V30 37 1 6 35
M  V30 38 1 6 36
M  V30 39 1 7 37
M  V30 40 1 7 38
M  V30 41 1 8 39
M  V30 42 1 9 40
M  V30 43 1 9 41
M  V30 44 1 10 42
M  V30 45 1 10 43
M  V30 46 1 11 44
M  V30 47 1 11 45
M  V30 48 1 12 46
M  V30 49 1 13 47
M  V30 50 1 14 48
M  V30 51 1 15 49
M  V30 52 1 16 50
M  V30 53 1 16 51
M  V30 54 1 17 52
M  V30 55 1 17 53
M  V30 56 1 19 54
M  V30 57 1 20 55
M  V30 58 1 21 56
M  V30 59 1 21 57
M  V30 60 1 23 58
M  V30 61 1 24 59
M  V30 62 1 24 60
M  V30 63 1 25 61
M  V30 64 1 26 62
M  V30 65 1 28 63
M  V30 66 1 29 64
M  V30 67 1 30 65
M  V30 68 1 30 66
M  V30 69 1 30 67
M  V30 70 1 31 68
M  V30 71 1 31 69
M  V30 72 1 31 70
M  V30 END BOND
M  V30 BEGIN COLLECTION
M  V30 MDLV30/STEABS ATOMS=(11 2 3 5 8 12 13 15 19 20 23 26)
M  V30 END COLLECTION
M  V30 END CTAB
M  END
>  <level_0>
3298

>  <index>
3298

>  <NO.>
3299

>  <Name>


>  <SMILES>
CN[C@H]1[C@H](O)[C@H](O[C@H]2[C@@H](N)C[C@H](N)[C@H](O[C@@H]3O[C@H](CN)CC[C@@H]3N)[C@@H]2O)OCC1(C)O

>  <logBB>


>  <Class>
-1

>  <MW>
449.28

>  <nHBAcc>
12

>  <nHBDon>
8

>  <SLogP>
-3.98

>  <TopoPSA>
213.72

>  <MMFF94 Energy>
219.87

$$$$
CO/N=C(/C(=O)NC1C(=O)N2C(C(=O)OCOC(=O)C(C)(C)C)=CCS[C@@H]12)c1csc(NC(=O)[C@H](C)N)n1
Actelion Java MolfileCreator 2.0

  0  0  0  0  0  0              0 V3000
M  V30 BEGIN CTAB
M  V30 COUNTS 66 68 0 0 0
M  V30 BEGIN ATOM
M  V30 1 S 0.081 0.3242 2.4337 0
M  V30 2 C -0.9619 0.2954 0.9437 0 CFG=2
M  V30 3 C -0.9708 -0.8476 3.3489 0
M  V30 4 N -0.986 -1.0637 0.4507 0
M  V30 5 C -0.3232 0.6894 -0.4247 0
M  V30 6 C -1.3337 -2.0623 2.5419 0
M  V30 7 C -1.2874 -2.152 1.1987 0
M  V30 8 C -0.4791 -0.8262 -0.7734 0
M  V30 9 N 1.0641 1.21 -0.4252 0
M  V30 10 C -1.578 -3.4445 0.5077 0
M  V30 11 O -0.1708 -1.5461 -1.6927 0
M  V30 12 C 1.3383 2.5275 -0.1211 0
M  V30 13 O -2.2402 -3.5307 -0.5144 0
M  V30 14 O -1.0202 -4.4687 1.1946 0
M  V30 15 O 0.4887 3.3588 0.1628 0
M  V30 16 C 2.8312 2.8728 -0.1314 0
M  V30 17 C -1.2642 -5.7576 0.6332 0
M  V30 18 N 3.626 1.9301 0.3033 0
M  V30 19 C 3.2507 4.1762 -0.6419 0
M  V30 20 O -2.5737 -6.2467 0.9312 0
M  V30 21 O 4.9854 2.248 0.1868 0
M  V30 22 N 2.579 4.7605 -1.7177 0
M  V30 23 C 4.273 4.9591 -0.1345 0
M  V30 24 C -2.7519 -6.6679 2.2114 0
M  V30 25 C 5.7504 1.1612 0.6962 0
M  V30 26 C 3.0961 5.9335 -1.9945 0
M  V30 27 S 4.3999 6.4191 -1.0195 0
M  V30 28 O -1.881 -6.6643 3.0714 0
M  V30 29 C -4.1939 -7.1316 2.435 0
M  V30 30 N 2.5843 6.6975 -3.009 0
M  V30 31 C -4.353 -7.6347 3.8785 0
M  V30 32 C -5.1458 -5.9493 2.2093 0
M  V30 33 C -4.5234 -8.277 1.4688 0
M  V30 34 C 3.0587 7.9079 -3.4659 0
M  V30 35 O 4.0671 8.4927 -3.081 0
M  V30 36 C 2.2133 8.4958 -4.6193 0 CFG=1
M  V30 37 N 2.3497 7.6614 -5.8271 0
M  V30 38 C 0.7439 8.6575 -4.2477 0
M  V30 39 H -1.9643 0.7155 1.0894 0
M  V30 40 H -0.4117 -1.1597 4.2366 0
M  V30 41 H -1.8803 -0.3412 3.6877 0
M  V30 42 H -0.9752 1.3154 -1.0475 0
M  V30 43 H -1.6059 -2.9389 3.128 0
M  V30 44 H 1.8614 0.5948 -0.5677 0
M  V30 45 H -1.1413 -5.7404 -0.4564 0
M  V30 46 H -0.5018 -6.4496 1.0106 0
M  V30 47 H 4.931 4.7556 0.6981 0
M  V30 48 H 5.5494 0.2538 0.1187 0
M  V30 49 H 5.5168 0.9966 1.7525 0
M  V30 50 H 6.8103 1.4116 0.6037 0
M  V30 51 H 1.7555 6.2962 -3.4222 0
M  V30 52 H -4.122 -6.8448 4.6027 0
M  V30 53 H -5.3767 -7.9749 4.071 0
M  V30 54 H -3.6775 -8.4733 4.0833 0
M  V30 55 H -4.8861 -5.1052 2.8586 0
M  V30 56 H -5.1022 -5.5877 1.1758 0
M  V30 57 H -6.1841 -6.2303 2.418 0
M  V30 58 H -3.812 -9.1031 1.5809 0
M  V30 59 H -4.4788 -7.95 0.4239 0
M  V30 60 H -5.5301 -8.6703 1.6485 0
M  V30 61 H 2.6191 9.4895 -4.8439 0
M  V30 62 H 3.333 7.6563 -6.1067 0
M  V30 63 H 2.1078 6.6923 -5.6337 0
M  V30 64 H 0.2371 7.6953 -4.1174 0
M  V30 65 H 0.6426 9.2116 -3.3082 0
M  V30 66 H 0.2064 9.2105 -5.0259 0
M  V30 END ATOM
M  V30 BEGIN BOND
M  V30 1 1 1 2
M  V30 2 1 1 3
M  V30 3 1 2 4
M  V30 4 1 2 5
M  V30 5 1 3 6
M  V30 6 1 4 7
M  V30 7 1 4 8
M  V30 8 1 5 9
M  V30 9 1 7 10
M  V30 10 2 8 11
M  V30 11 1 9 12
M  V30 12 2 10 13
M  V30 13 1 10 14
M  V30 14 2 12 15
M  V30 15 1 12 16
M  V30 16 1 14 17
M  V30 17 2 16 18
M  V30 18 1 16 19
M  V30 19 1 17 20
M  V30 20 1 18 21
M  V30 21 1 19 22
M  V30 22 2 19 23
M  V30 23 1 20 24
M  V30 24 1 21 25
M  V30 25 2 22 26
M  V30 26 1 23 27
M  V30 27 2 24 28
M  V30 28 1 24 29
M  V30 29 1 26 30
M  V30 30 1 29 31
M  V30 31 1 29 32
M  V30 32 1 29 33
M  V30 33 1 30 34
M  V30 34 2 34 35
M  V30 35 1 34 36
M  V30 36 1 36 37
M  V30 37 1 36 38
M  V30 38 1 5 8
M  V30 39 2 6 7
M  V30 40 1 26 27
M  V30 41 1 2 39
M  V30 42 1 3 40
M  V30 43 1 3 41
M  V30 44 1 5 42
M  V30 45 1 6 43
M  V30 46 1 9 44
M  V30 47 1 17 45
M  V30 48 1 17 46
M  V30 49 1 23 47
M  V30 50 1 25 48
M  V30 51 1 25 49
M  V30 52 1 25 50
M  V30 53 1 30 51
M  V30 54 1 31 52
M  V30 55 1 31 53
M  V30 56 1 31 54
M  V30 57 1 32 55
M  V30 58 1 32 56
M  V30 59 1 32 57
M  V30 60 1 33 58
M  V30 61 1 33 59
M  V30 62 1 33 60
M  V30 63 1 36 61
M  V30 64 1 37 62
M  V30 65 1 37 63
M  V30 66 1 38 64
M  V30 67 1 38 65
M  V30 68 1 38 66
M  V30 END BOND
M  V30 BEGIN COLLECTION
M  V30 MDLV30/STEABS ATOMS=(2 2 36)
M  V30 END COLLECTION
M  V30 END CTAB
M  END
>  <level_0>
3316

>  <index>
3316

>  <NO.>
3317

>  <Name>


>  <SMILES>
CO/N=C(/C(=O)NC1C(=O)N2C(C(=O)OCOC(=O)C(C)(C)C)=CCS[C@@H]12)c1csc(NC(=O)[C@H](C)N)n1

>  <logBB>


>  <Class>
-1

>  <MW>
568.14

>  <nHBAcc>
13

>  <nHBDon>
3

>  <SLogP>
0.15

>  <TopoPSA>
191.61

>  <MMFF94 Energy>
70.466

$$$$
CO/N=C(/C(=O)NC1C(=O)N2C(C(=O)O[C@H](C)OC(=O)C(C)(C)OC)=C(COC(N)=O)CS[C@@H]12)c1ccco1
Actelion Java MolfileCreator 2.0

  0  0  0  0  0  0              0 V3000
M  V30 BEGIN CTAB
M  V30 COUNTS 67 69 0 0 0
M  V30 BEGIN ATOM
M  V30 1 S 2.0137 1.7719 -2.9815 0
M  V30 2 C 1.7837 0.3992 -1.8236 0 CFG=2
M  V30 3 C 0.5776 1.2975 -3.9998 0
M  V30 4 N 0.4915 0.5759 -1.2021 0
M  V30 5 C 2.3998 0.5868 -0.3993 0
M  V30 6 C -0.681 1.0123 -3.1993 0
M  V30 7 C -0.6766 0.7136 -1.8791 0
M  V30 8 C 0.9037 0.547 0.0782 0
M  V30 9 N 3.2327 -0.5233 0.1289 0
M  V30 10 C -1.9421 1.1035 -4.03 0
M  V30 11 C -1.9507 0.5883 -1.1066 0
M  V30 12 O 0.3212 0.5411 1.1362 0
M  V30 13 C 4.2705 -1.0902 -0.5818 0
M  V30 14 O -2.1834 2.4812 -4.3184 0
M  V30 15 O -2.8372 1.4267 -1.1108 0
M  V30 16 O -1.9453 -0.6078 -0.4734 0
M  V30 17 O 4.57 -0.7712 -1.7213 0
M  V30 18 C 5.005 -2.2025 0.1866 0
M  V30 19 C -3.2564 2.683 -5.1134 0
M  V30 20 C -3.0225 -0.8755 0.4455 0 CFG=1
M  V30 21 N 4.244 -2.8874 0.9988 0
M  V30 22 C 6.4291 -2.3201 -0.0625 0
M  V30 23 O -3.9555 1.8186 -5.6154 0
M  V30 24 N -3.4546 4.0066 -5.2933 0
M  V30 25 O -3.1698 0.1809 1.3972 0
M  V30 26 C -4.3232 -1.1415 -0.3071 0
M  V30 27 O 4.9454 -3.8628 1.716 0
M  V30 28 O 7.1304 -3.3702 0.476 0
M  V30 29 C 7.3161 -1.537 -0.7877 0
M  V30 30 C -3.717 -0.167 2.5951 0
M  V30 31 C 4.0264 -4.5922 2.5189 0
M  V30 32 C 8.426 -3.2503 0.099 0
M  V30 33 C 8.5952 -2.1359 -0.6823 0
M  V30 34 O -4.0948 -1.3006 2.867 0
M  V30 35 C -3.7842 1.0607 3.5403 0
M  V30 36 O -4.4124 0.6194 4.7577 0
M  V30 37 C -4.6415 2.1423 2.8706 0
M  V30 38 C -2.3524 1.5525 3.7889 0
M  V30 39 C -4.4381 1.5274 5.846 0
M  V30 40 H 1.9046 -0.6001 -2.2581 0
M  V30 41 H 0.4072 2.1297 -4.6904 0
M  V30 42 H 0.8384 0.4179 -4.5983 0
M  V30 43 H 2.8746 1.5551 -0.2016 0
M  V30 44 H 3.0332 -0.9352 1.0401 0
M  V30 45 H -1.7908 0.5459 -4.9637 0
M  V30 46 H -2.8125 0.6691 -3.5274 0
M  V30 47 H -2.7158 -1.7937 0.9603 0
M  V30 48 H -4.2306 4.3156 -5.8585 0
M  V30 49 H -2.8551 4.6731 -4.832 0
M  V30 50 H -4.7141 -0.2292 -0.7681 0
M  V30 51 H -4.1692 -1.8765 -1.1033 0
M  V30 52 H -5.102 -1.5067 0.3692 0
M  V30 53 H 7.074 -0.6368 -1.3376 0
M  V30 54 H 3.2838 -5.0897 1.8876 0
M  V30 55 H 3.5304 -3.9236 3.2293 0
M  V30 56 H 4.5807 -5.3513 3.0768 0
M  V30 57 H 9.0909 -4.0228 0.4598 0
M  V30 58 H 9.5222 -1.7977 -1.1235 0
M  V30 59 H -4.6864 3.055 3.473 0
M  V30 60 H -5.6725 1.7922 2.7437 0
M  V30 61 H -4.2561 2.4226 1.8845 0
M  V30 62 H -1.772 0.7946 4.3274 0
M  V30 63 H -1.8273 1.7803 2.8553 0
M  V30 64 H -2.3386 2.4628 4.3977 0
M  V30 65 H -4.909 2.4748 5.5746 0
M  V30 66 H -5.0318 1.075 6.6459 0
M  V30 67 H -3.4322 1.6979 6.2382 0
M  V30 END ATOM
M  V30 BEGIN BOND
M  V30 1 1 1 2
M  V30 2 1 1 3
M  V30 3 1 2 4
M  V30 4 1 2 5
M  V30 5 1 3 6
M  V30 6 1 4 7
M  V30 7 1 4 8
M  V30 8 1 5 9
M  V30 9 1 6 10
M  V30 10 1 7 11
M  V30 11 2 8 12
M  V30 12 1 9 13
M  V30 13 1 10 14
M  V30 14 2 11 15
M  V30 15 1 11 16
M  V30 16 2 13 17
M  V30 17 1 13 18
M  V30 18 1 14 19
M  V30 19 1 16 20
M  V30 20 2 18 21
M  V30 21 1 18 22
M  V30 22 2 19 23
M  V30 23 1 19 24
M  V30 24 1 20 25
M  V30 25 1 20 26
M  V30 26 1 21 27
M  V30 27 1 22 28
M  V30 28 2 22 29
M  V30 29 1 25 30
M  V30 30 1 27 31
M  V30 31 1 28 32
M  V30 32 1 29 33
M  V30 33 2 30 34
M  V30 34 1 30 35
M  V30 35 1 35 36
M  V30 36 1 35 37
M  V30 37 1 35 38
M  V30 38 1 36 39
M  V30 39 1 5 8
M  V30 40 2 6 7
M  V30 41 2 32 33
M  V30 42 1 2 40
M  V30 43 1 3 41
M  V30 44 1 3 42
M  V30 45 1 5 43
M  V30 46 1 9 44
M  V30 47 1 10 45
M  V30 48 1 10 46
M  V30 49 1 20 47
M  V30 50 1 24 48
M  V30 51 1 24 49
M  V30 52 1 26 50
M  V30 53 1 26 51
M  V30 54 1 26 52
M  V30 55 1 29 53
M  V30 56 1 31 54
M  V30 57 1 31 55
M  V30 58 1 31 56
M  V30 59 1 32 57
M  V30 60 1 33 58
M  V30 61 1 37 59
M  V30 62 1 37 60
M  V30 63 1 37 61
M  V30 64 1 38 62
M  V30 65 1 38 63
M  V30 66 1 38 64
M  V30 67 1 39 65
M  V30 68 1 39 66
M  V30 69 1 39 67
M  V30 END BOND
M  V30 BEGIN COLLECTION
M  V30 MDLV30/STEABS ATOMS=(2 2 20)
M  V30 END COLLECTION
M  V30 END CTAB
M  END
>  <level_0>
3318

>  <index>
3318

>  <NO.>
3319

>  <Name>


>  <SMILES>
CO/N=C(/C(=O)NC1C(=O)N2C(C(=O)O[C@H](C)OC(=O)C(C)(C)OC)=C(COC(N)=O)CS[C@@H]12)c1ccco1

>  <logBB>


>  <Class>
-1

>  <MW>
568.15

>  <nHBAcc>
13

>  <nHBDon>
2

>  <SLogP>
0.24

>  <TopoPSA>
198.29

>  <MMFF94 Energy>
27.755

$$$$
COC1(NC(=O)C2SC(=C(C#N)C(=O)O)S2)C(=O)N2C(C(=O)O)=C(CSc3nnnn3C)CS[C@H]21
Actelion Java MolfileCreator 2.0

  0  0  0  0  0  0              0 V3000
M  V30 BEGIN CTAB
M  V30 COUNTS 50 53 0 0 0
M  V30 BEGIN ATOM
M  V30 1 S 1.1071 1.7035 1.7035 0
M  V30 2 C 1.3385 2.7806 0.2567 0 CFG=2
M  V30 3 C -0.5061 2.4264 2.1235 0
M  V30 4 N 0.2441 2.5832 -0.6639 0
M  V30 5 C 2.3023 2.2364 -0.8979 0
M  V30 6 C -1.4771 2.4401 0.9579 0
M  V30 7 C -1.0707 2.5454 -0.3304 0
M  V30 8 C 0.9795 2.5688 -1.7996 0
M  V30 9 O 3.4564 3.0827 -1.1374 0
M  V30 10 N 2.6117 0.7871 -0.7191 0
M  V30 11 C -2.9317 2.3341 1.3791 0
M  V30 12 C -2.0603 2.5334 -1.4396 0
M  V30 13 O 0.6594 2.7052 -2.9558 0
M  V30 14 C 4.0925 2.9339 -2.4 0
M  V30 15 C 2.5238 -0.1527 -1.7292 0
M  V30 16 S -3.7335 0.8002 0.8228 0
M  V30 17 O -2.9355 3.3597 -1.6235 0
M  V30 18 O -1.9063 1.4482 -2.2171 0
M  V30 19 O 2.5425 0.1962 -2.9124 0
M  V30 20 C 2.3534 -1.6461 -1.2514 0
M  V30 21 C -2.8464 -0.4246 1.6472 0
M  V30 22 S 2.88 -1.97 0.4764 0
M  V30 23 S 0.5944 -1.9609 -0.8132 0
M  V30 24 N -2.1904 -0.3161 2.7783 0
M  V30 25 N -2.7372 -1.7106 1.2034 0
M  V30 26 C 1.4825 -3.0014 0.2588 0
M  V30 27 N -1.6454 -1.5562 3.0178 0
M  V30 28 N -1.974 -2.4155 2.0617 0
M  V30 29 C -3.2937 -2.3311 0.034 0
M  V30 30 C 1.2027 -4.1721 0.8723 0
M  V30 31 C 2.0762 -4.8217 1.7932 0
M  V30 32 C -0.0817 -4.8387 0.5561 0
M  V30 33 N 2.8228 -5.3397 2.5164 0
M  V30 34 O -0.8537 -4.5959 -0.3548 0
M  V30 35 O -0.3555 -5.8479 1.4057 0
M  V30 36 H 1.5004 3.8362 0.5086 0
M  V30 37 H -0.8945 1.8405 2.9597 0
M  V30 38 H -0.3642 3.4495 2.4898 0
M  V30 39 H 2.6262 0.4344 0.236 0
M  V30 40 H -3.0378 2.4092 2.4672 0
M  V30 41 H -3.494 3.1828 0.9741 0
M  V30 42 H 4.8425 3.723 -2.4999 0
M  V30 43 H 4.5992 1.9671 -2.4545 0
M  V30 44 H 3.3731 3.0335 -3.2166 0
M  V30 45 H -2.5157 1.5969 -2.9686 0
M  V30 46 H 2.7651 -2.3602 -1.9754 0
M  V30 47 H -3.222 -3.4171 0.1288 0
M  V30 48 H -4.3471 -2.0539 -0.0521 0
M  V30 49 H -2.7353 -1.9908 -0.8405 0
M  V30 50 H -1.2281 -6.1922 1.1207 0
M  V30 END ATOM
M  V30 BEGIN BOND
M  V30 1 1 1 2
M  V30 2 1 1 3
M  V30 3 1 2 4
M  V30 4 1 2 5
M  V30 5 1 3 6
M  V30 6 1 4 7
M  V30 7 1 4 8
M  V30 8 1 5 9
M  V30 9 1 5 10
M  V30 10 1 6 11
M  V30 11 1 7 12
M  V30 12 2 8 13
M  V30 13 1 9 14
M  V30 14 1 10 15
M  V30 15 1 11 16
M  V30 16 2 12 17
M  V30 17 1 12 18
M  V30 18 2 15 19
M  V30 19 1 15 20
M  V30 20 1 16 21
M  V30 21 1 20 22
M  V30 22 1 20 23
M  V30 23 2 21 24
M  V30 24 1 21 25
M  V30 25 1 22 26
M  V30 26 1 24 27
M  V30 27 1 25 28
M  V30 28 1 25 29
M  V30 29 2 26 30
M  V30 30 1 30 31
M  V30 31 1 30 32
M  V30 32 3 31 33
M  V30 33 2 32 34
M  V30 34 1 32 35
M  V30 35 1 5 8
M  V30 36 2 6 7
M  V30 37 1 23 26
M  V30 38 2 27 28
M  V30 39 1 2 36
M  V30 40 1 3 37
M  V30 41 1 3 38
M  V30 42 1 10 39
M  V30 43 1 11 40
M  V30 44 1 11 41
M  V30 45 1 14 42
M  V30 46 1 14 43
M  V30 47 1 14 44
M  V30 48 1 18 45
M  V30 49 1 20 46
M  V30 50 1 29 47
M  V30 51 1 29 48
M  V30 52 1 29 49
M  V30 53 1 35 50
M  V30 END BOND
M  V30 BEGIN COLLECTION
M  V30 MDLV30/STEABS ATOMS=(1 2)
M  V30 END COLLECTION
M  V30 END CTAB
M  END
>  <level_0>
3352

>  <index>
3352

>  <NO.>
3353

>  <Name>


>  <SMILES>
COC1(NC(=O)C2SC(=C(C#N)C(=O)O)S2)C(=O)N2C(C(=O)O)=C(CSc3nnnn3C)CS[C@H]21

>  <logBB>


>  <Class>
-1

>  <MW>
556.99

>  <nHBAcc>
13

>  <nHBDon>
3

>  <SLogP>
-0.36

>  <TopoPSA>
200.63

>  <MMFF94 Energy>
17.021

$$$$
COC1(NC(=O)CSC(F)F)C(=O)N2C(C(=O)O)=C(CSc3nnnn3CCO)CO[C@H]21
Actelion Java MolfileCreator 2.0

  0  0  0  0  0  0              0 V3000
M  V30 BEGIN CTAB
M  V30 COUNTS 50 52 0 0 0
M  V30 BEGIN ATOM
M  V30 1 S 3.1435 -0.8265 -1.2399 0
M  V30 2 C 4.6317 -1.5873 -0.8168 0
M  V30 3 C 2.0029 -2.1552 -0.7497 0
M  V30 4 N 5.0457 -2.7622 -1.2281 0
M  V30 5 N 5.5482 -1.0729 0.0554 0
M  V30 6 C 0.6048 -1.5966 -0.6652 0
M  V30 7 N 6.2463 -2.975 -0.5934 0
M  V30 8 N 6.5518 -1.9603 0.2055 0
M  V30 9 C 5.4908 0.1215 0.8674 0
M  V30 10 C 0.052 -1.1166 0.4736 0
M  V30 11 C -0.1979 -1.6902 -1.9563 0
M  V30 12 C 5.784 1.3926 0.0792 0
M  V30 13 N -1.2102 -0.638 0.4386 0
M  V30 14 C 0.7783 -1.1482 1.7669 0
M  V30 15 O -1.6026 -1.4588 -1.7649 0
M  V30 16 O 7.1759 1.5003 -0.194 0
M  V30 17 C -2.194 -0.2275 1.2602 0
M  V30 18 C -1.8698 -0.4137 -0.8161 0 CFG=1
M  V30 19 O 1.8682 -0.6494 1.9884 0
M  V30 20 O 0.1138 -1.8736 2.6799 0
M  V30 21 O -2.1827 -0.0116 2.4481 0
M  V30 22 C -3.244 -0.3397 -0.0014 0
M  V30 23 O -4.0427 -1.5563 -0.0288 0
M  V30 24 N -4.0198 0.8669 -0.4024 0
M  V30 25 C -4.8439 -1.802 1.1194 0
M  V30 26 C -4.5939 1.737 0.4929 0
M  V30 27 O -4.5544 1.5783 1.7069 0
M  V30 28 C -5.2909 2.9249 -0.1454 0
M  V30 29 S -4.2416 4.4075 -0.1366 0
M  V30 30 C -2.8819 3.8052 -1.1408 0
M  V30 31 F -2.0839 2.9744 -0.4247 0
M  V30 32 F -3.3558 3.0652 -2.1786 0
M  V30 33 H 2.3169 -2.5851 0.2074 0
M  V30 34 H 2.0531 -2.9685 -1.482 0
M  V30 35 H 6.2107 8.0E-4 1.6852 0
M  V30 36 H 4.4886 0.1658 1.3057 0
M  V30 37 H 0.1731 -0.9651 -2.6887 0
M  V30 38 H -0.1047 -2.6926 -2.3861 0
M  V30 39 H 5.2414 1.4286 -0.8698 0
M  V30 40 H 5.4989 2.2652 0.6758 0
M  V30 41 H 7.3145 2.3129 -0.7114 0
M  V30 42 H -1.5904 0.5557 -1.2543 0
M  V30 43 H 0.6129 -1.7673 3.5144 0
M  V30 44 H -4.1266 1.052 -1.3933 0
M  V30 45 H -4.2169 -1.9429 2.0035 0
M  V30 46 H -5.413 -2.7198 0.9491 0
M  V30 47 H -5.5486 -0.9822 1.2797 0
M  V30 48 H -5.6075 2.6955 -1.1676 0
M  V30 49 H -6.1979 3.1341 0.4313 0
M  V30 50 H -2.2767 4.626 -1.5332 0
M  V30 END ATOM
M  V30 BEGIN BOND
M  V30 1 1 1 2
M  V30 2 1 1 3
M  V30 3 2 2 4
M  V30 4 1 2 5
M  V30 5 1 3 6
M  V30 6 1 4 7
M  V30 7 1 5 8
M  V30 8 1 5 9
M  V30 9 2 6 10
M  V30 10 1 6 11
M  V30 11 1 9 12
M  V30 12 1 10 13
M  V30 13 1 10 14
M  V30 14 1 11 15
M  V30 15 1 12 16
M  V30 16 1 13 17
M  V30 17 1 13 18
M  V30 18 2 14 19
M  V30 19 1 14 20
M  V30 20 2 17 21
M  V30 21 1 17 22
M  V30 22 1 22 23
M  V30 23 1 22 24
M  V30 24 1 23 25
M  V30 25 1 24 26
M  V30 26 2 26 27
M  V30 27 1 26 28
M  V30 28 1 28 29
M  V30 29 1 29 30
M  V30 30 1 30 31
M  V30 31 1 30 32
M  V30 32 2 7 8
M  V30 33 1 15 18
M  V30 34 1 18 22
M  V30 35 1 3 33
M  V30 36 1 3 34
M  V30 37 1 9 35
M  V30 38 1 9 36
M  V30 39 1 11 37
M  V30 40 1 11 38
M  V30 41 1 12 39
M  V30 42 1 12 40
M  V30 43 1 16 41
M  V30 44 1 18 42
M  V30 45 1 20 43
M  V30 46 1 24 44
M  V30 47 1 25 45
M  V30 48 1 25 46
M  V30 49 1 25 47
M  V30 50 1 28 48
M  V30 51 1 28 49
M  V30 52 1 30 50
M  V30 END BOND
M  V30 BEGIN COLLECTION
M  V30 MDLV30/STEABS ATOMS=(1 18)
M  V30 END COLLECTION
M  V30 END CTAB
M  END
>  <level_0>
3355

>  <index>
3355

>  <NO.>
3356

>  <Name>


>  <SMILES>
COC1(NC(=O)CSC(F)F)C(=O)N2C(C(=O)O)=C(CSc3nnnn3CCO)CO[C@H]21

>  <logBB>


>  <Class>
-1

>  <MW>
496.06

>  <nHBAcc>
11

>  <nHBDon>
3

>  <SLogP>
-1.29

>  <TopoPSA>
169.0

>  <MMFF94 Energy>
6.7744

$$$$
CO[C@H]1/C=C/OC2(C)Oc3c(C)c(O)c4c(c3C2=O)C(=O)/C(=C/NN2CCN(C)CC2)C(=C4O)NC(=O)/C(C)=C\C=C\[C@H](C)[C@H](O)[C@H](C)[C@H](O)[C@H](C)[C@H](OC(C)=O)[C@H]1C
Actelion Java MolfileCreator 2.0

  0  0  0  0  0  0              0 V3000
M  V30 BEGIN CTAB
M  V30 COUNTS 117 121 0 0 0
M  V30 BEGIN ATOM
M  V30 1 O 3.898 3.3404 1.9077 0
M  V30 2 C 3.9041 2.2978 1.2668 0
M  V30 3 N 2.9176 1.8721 0.4148 0
M  V30 4 C 5.075 1.374 1.2998 0
M  V30 5 C 1.6367 2.3487 0.165 0
M  V30 6 C 4.9579 0.082 1.6641 0
M  V30 7 C 6.3759 2.0038 0.9074 0
M  V30 8 C 0.9671 3.2926 0.8708 0
M  V30 9 C 0.9394 1.6304 -0.9064 0
M  V30 10 C 3.7609 -0.5637 2.1635 0
M  V30 11 O 1.4957 4.0367 1.9063 0
M  V30 12 C -0.4781 3.5774 0.6117 0
M  V30 13 C -0.5451 1.5697 -0.8611 0
M  V30 14 C 1.5119 0.9763 -1.9362 0
M  V30 15 C 3.6668 -1.8876 2.3597 0
M  V30 16 C -1.1979 4.6176 1.2665 0
M  V30 17 C -1.1942 2.7598 -0.2819 0
M  V30 18 O -1.1682 0.58 -1.2195 0
M  V30 19 N 2.8383 0.942 -2.2972 0
M  V30 20 C 2.4542 -2.5547 2.9867 0 CFG=1
M  V30 21 O -0.5854 5.4609 2.1636 0
M  V30 22 C -2.5748 4.8436 1.0604 0
M  V30 23 C -2.5284 3.0374 -0.5244 0
M  V30 24 N 3.2774 0.053 -3.2757 0
M  V30 25 C 1.7617 -3.6436 2.1152 0 CFG=2
M  V30 26 C 2.9159 -3.1773 4.3148 0
M  V30 27 C -3.2208 4.0178 0.1569 0
M  V30 28 C -3.2998 5.93 1.7979 0
M  V30 29 C -3.4779 2.5125 -1.4703 0
M  V30 30 C 3.6518 0.7955 -4.497 0
M  V30 31 C 4.4429 -0.6998 -2.7729 0
M  V30 32 O 2.734 -4.5674 1.5949 0
M  V30 33 C 0.8119 -3.1734 0.972 0 CFG=1
M  V30 34 O -4.5563 4.1106 -0.1525 0
M  V30 35 O -3.2017 1.9262 -2.503 0
M  V30 36 C -4.8665 2.9483 -0.9888 0
M  V30 37 C 4.2368 -0.1436 -5.5738 0
M  V30 38 C 5.0201 -1.6378 -3.8541 0
M  V30 39 C -0.4467 -2.3808 1.4529 0 CFG=2
M  V30 40 C 1.5375 -2.3982 -0.1377 0
M  V30 41 O -5.6168 2.004 -0.2193 0
M  V30 42 C -5.7185 3.4523 -2.1498 0
M  V30 43 N 5.4023 -0.9018 -5.0749 0
M  V30 44 O -0.5912 -2.5836 2.8676 0
M  V30 45 C -1.8002 -2.7904 0.7829 0 CFG=1
M  V30 46 C -5.4297 0.6942 -0.5621 0
M  V30 47 C 5.8961 -1.8201 -6.0991 0
M  V30 48 C -2.9658 -1.7758 1.0851 0 CFG=2
M  V30 49 C -1.7174 -2.9975 -0.7356 0
M  V30 50 C -5.5962 -0.3066 0.3097 0
M  V30 51 O -2.8233 -1.2603 2.434 0
M  V30 52 C -4.3662 -2.4688 0.9567 0 CFG=2
M  V30 53 C -5.3103 -1.7407 -0.0432 0 CFG=1
M  V30 54 C -2.7459 0.0901 2.5998 0
M  V30 55 C -5.0351 -2.7424 2.3162 0
M  V30 56 O -6.5499 -2.4615 -0.0774 0
M  V30 57 O -2.7093 0.9236 1.7089 0
M  V30 58 C -2.6813 0.4176 4.0601 0
M  V30 59 C -7.2593 -2.3076 -1.3003 0
M  V30 60 H 3.1442 1.0165 -0.0919 0
M  V30 61 H 5.8508 -0.5429 1.6389 0
M  V30 62 H 6.3066 2.4234 -0.1017 0
M  V30 63 H 6.639 2.8088 1.6014 0
M  V30 64 H 7.1978 1.2801 0.9099 0
M  V30 65 H 2.9133 0.0634 2.4361 0
M  V30 66 H 2.4613 3.8603 1.9741 0
M  V30 67 H 0.8897 0.4003 -2.6239 0
M  V30 68 H 4.5116 -2.535 2.1318 0
M  V30 69 H 3.4423 1.7028 -1.9804 0
M  V30 70 H 1.7171 -1.7849 3.2429 0
M  V30 71 H 0.3312 5.1354 2.2879 0
M  V30 72 H 1.1496 -4.2622 2.7844 0
M  V30 73 H 3.6497 -3.9756 4.1556 0
M  V30 74 H 3.3744 -2.4235 4.9654 0
M  V30 75 H 2.0658 -3.6042 4.8583 0
M  V30 76 H -3.2505 5.7516 2.8771 0
M  V30 77 H -4.3575 5.9817 1.5212 0
M  V30 78 H -2.8537 6.9039 1.5714 0
M  V30 79 H 4.3858 1.5799 -4.2649 0
M  V30 80 H 2.765 1.2906 -4.9117 0
M  V30 81 H 4.1418 -1.3066 -1.91 0
M  V30 82 H 5.2305 -0.0145 -2.4294 0
M  V30 83 H 3.3033 -4.0848 0.9754 0
M  V30 84 H 0.4691 -4.1078 0.5087 0
M  V30 85 H 4.5398 0.4668 -6.4331 0
M  V30 86 H 3.4498 -0.8278 -5.9195 0
M  V30 87 H 4.2818 -2.4175 -4.0862 0
M  V30 88 H 5.9032 -2.1375 -3.4379 0
M  V30 89 H -0.2776 -1.3072 1.3055 0
M  V30 90 H 0.885 -2.2271 -0.9975 0
M  V30 91 H 2.4095 -2.9413 -0.5119 0
M  V30 92 H 1.8664 -1.4164 0.2106 0
M  V30 93 H -5.9872 2.6386 -2.8317 0
M  V30 94 H -5.1971 4.2272 -2.7224 0
M  V30 95 H -6.6516 3.8909 -1.7783 0
M  V30 96 H -1.4782 -2.267 3.1218 0
M  V30 97 H -2.0818 -3.7511 1.2377 0
M  V30 98 H -5.1338 0.5179 -1.5898 0
M  V30 99 H 5.1416 -2.5574 -6.3964 0
M  V30 100 H 6.2076 -1.2667 -6.9918 0
M  V30 101 H 6.7794 -2.3579 -5.7373 0
M  V30 102 H -2.8794 -0.9616 0.357 0
M  V30 103 H -2.6903 -3.2696 -1.1568 0
M  V30 104 H -1.3883 -2.0853 -1.241 0
M  V30 105 H -1.0332 -3.8071 -1.0019 0
M  V30 106 H -5.9307 -0.0833 1.3178 0
M  V30 107 H -4.2229 -3.4662 0.5177 0
M  V30 108 H -4.8356 -1.8025 -1.0324 0
M  V30 109 H -4.3615 -3.3098 2.9681 0
M  V30 110 H -5.9427 -3.3434 2.1975 0
M  V30 111 H -5.3133 -1.8184 2.8323 0
M  V30 112 H -3.5509 -9.0E-4 4.5733 0
M  V30 113 H -1.7554 0.0242 4.4867 0
M  V30 114 H -2.695 1.5039 4.1883 0
M  V30 115 H -6.6555 -2.6602 -2.1419 0
M  V30 116 H -8.1656 -2.9171 -1.2467 0
M  V30 117 H -7.5553 -1.2665 -1.4563 0
M  V30 END ATOM
M  V30 BEGIN BOND
M  V30 1 2 1 2
M  V30 2 1 2 3
M  V30 3 1 2 4
M  V30 4 1 3 5
M  V30 5 2 4 6
M  V30 6 1 4 7
M  V30 7 2 5 8
M  V30 8 1 5 9
M  V30 9 1 6 10
M  V30 10 1 8 11
M  V30 11 1 8 12
M  V30 12 1 9 13
M  V30 13 2 9 14
M  V30 14 2 10 15
M  V30 15 2 12 16
M  V30 16 1 12 17
M  V30 17 2 13 18
M  V30 18 1 14 19
M  V30 19 1 15 20
M  V30 20 1 16 21
M  V30 21 1 16 22
M  V30 22 2 17 23
M  V30 23 1 19 24
M  V30 24 1 20 25
M  V30 25 1 20 26
M  V30 26 2 22 27
M  V30 27 1 22 28
M  V30 28 1 23 29
M  V30 29 1 24 30
M  V30 30 1 24 31
M  V30 31 1 25 32
M  V30 32 1 25 33
M  V30 33 1 27 34
M  V30 34 2 29 35
M  V30 35 1 29 36
M  V30 36 1 30 37
M  V30 37 1 31 38
M  V30 38 1 33 39
M  V30 39 1 33 40
M  V30 40 1 36 41
M  V30 41 1 36 42
M  V30 42 1 37 43
M  V30 43 1 39 44
M  V30 44 1 39 45
M  V30 45 1 41 46
M  V30 46 1 43 47
M  V30 47 1 45 48
M  V30 48 1 45 49
M  V30 49 2 46 50
M  V30 50 1 48 51
M  V30 51 1 48 52
M  V30 52 1 50 53
M  V30 53 1 51 54
M  V30 54 1 52 55
M  V30 55 1 53 56
M  V30 56 2 54 57
M  V30 57 1 54 58
M  V30 58 1 56 59
M  V30 59 1 13 17
M  V30 60 1 23 27
M  V30 61 1 34 36
M  V30 62 1 38 43
M  V30 63 1 52 53
M  V30 64 1 3 60
M  V30 65 1 6 61
M  V30 66 1 7 62
M  V30 67 1 7 63
M  V30 68 1 7 64
M  V30 69 1 10 65
M  V30 70 1 11 66
M  V30 71 1 14 67
M  V30 72 1 15 68
M  V30 73 1 19 69
M  V30 74 1 20 70
M  V30 75 1 21 71
M  V30 76 1 25 72
M  V30 77 1 26 73
M  V30 78 1 26 74
M  V30 79 1 26 75
M  V30 80 1 28 76
M  V30 81 1 28 77
M  V30 82 1 28 78
M  V30 83 1 30 79
M  V30 84 1 30 80
M  V30 85 1 31 81
M  V30 86 1 31 82
M  V30 87 1 32 83
M  V30 88 1 33 84
M  V30 89 1 37 85
M  V30 90 1 37 86
M  V30 91 1 38 87
M  V30 92 1 38 88
M  V30 93 1 39 89
M  V30 94 1 40 90
M  V30 95 1 40 91
M  V30 96 1 40 92
M  V30 97 1 42 93
M  V30 98 1 42 94
M  V30 99 1 42 95
M  V30 100 1 44 96
M  V30 101 1 45 97
M  V30 102 1 46 98
M  V30 103 1 47 99
M  V30 104 1 47 100
M  V30 105 1 47 101
M  V30 106 1 48 102
M  V30 107 1 49 103
M  V30 108 1 49 104
M  V30 109 1 49 105
M  V30 110 1 50 106
M  V30 111 1 52 107
M  V30 112 1 53 108
M  V30 113 1 55 109
M  V30 114 1 55 110
M  V30 115 1 55 111
M  V30 116 1 58 112
M  V30 117 1 58 113
M  V30 118 1 58 114
M  V30 119 1 59 115
M  V30 120 1 59 116
M  V30 121 1 59 117
M  V30 END BOND
M  V30 BEGIN COLLECTION
M  V30 MDLV30/STEABS ATOMS=(8 20 25 33 39 45 48 52 53)
M  V30 END COLLECTION
M  V30 END CTAB
M  END
>  <level_0>
3390

>  <index>
3390

>  <NO.>
3391

>  <Name>


>  <SMILES>
CO[C@H]1/C=C/OC2(C)Oc3c(C)c(O)c4c(c3C2=O)C(=O)/C(=C/NN2CCN(C)CC2)C(=C4O)NC(=O)/C(C)=C\C=C\[C@H](C)[C@H](O)[C@H](C)[C@H](O)[C@H](C)[C@H](OC(C)=O)[C@H]1C

>  <logBB>


>  <Class>
-1

>  <MW>
822.41

>  <nHBAcc>
15

>  <nHBDon>
6

>  <SLogP>
3.43

>  <TopoPSA>
216.66

>  <MMFF94 Energy>
221.33

$$$$
CO[C@H]1/C=C/OC2(C)Oc3c(C)c(O)c4c(c3C2=O)C2=NC3(CCN(CC(C)C)CC3)NC2=C(NC(=O)/C(C)=C\C=C\[C@H](C)[C@H](O)[C@H](C)[C@H](O)[C@H](C)[C@H](OC(C)=O)[C@H]1C)C4=O
Actelion Java MolfileCreator 2.0

  0  0  0  0  0  0              0 V3000
M  V30 BEGIN CTAB
M  V30 COUNTS 123 128 0 0 0
M  V30 BEGIN ATOM
M  V30 1 O -1.6726 2.3104 -4.1457 0
M  V30 2 C -0.607 2.8974 -4.2773 0
M  V30 3 N 0.6591 2.3663 -4.2216 0
M  V30 4 C -0.5542 4.3748 -4.4815 0
M  V30 5 C 1.0852 1.1328 -3.7654 0
M  V30 6 C -0.8226 5.1967 -3.4489 0
M  V30 7 C -0.1358 4.8484 -5.8372 0
M  V30 8 C 2.5534 0.9008 -3.9373 0
M  V30 9 C 0.3521 0.2067 -3.1518 0
M  V30 10 C -1.3442 4.7922 -2.1606 0
M  V30 11 O 3.2043 1.7904 -4.4832 0
M  V30 12 C 3.1688 -0.3479 -3.3949 0
M  V30 13 N -0.9633 0.0979 -2.8495 0
M  V30 14 C 0.9418 -1.023 -2.576 0
M  V30 15 C -1.2631 5.5385 -1.0488 0
M  V30 16 C 4.5615 -0.5869 -3.5453 0
M  V30 17 C 2.3833 -1.2409 -2.6452 0
M  V30 18 C -1.2484 -1.1524 -2.1834 0
M  V30 19 N 0.0789 -1.8355 -2.0305 0
M  V30 20 C -1.9711 5.1819 0.244 0 CFG=1
M  V30 21 O 5.2969 0.245 -4.3447 0
M  V30 22 C 5.199 -1.6596 -2.9027 0
M  V30 23 C 3.0339 -2.2594 -1.9625 0
M  V30 24 C -2.1679 -2.0164 -3.0388 0
M  V30 25 C -1.8475 -0.9003 -0.8065 0
M  V30 26 C -1.0316 4.9007 1.4484 0 CFG=2
M  V30 27 C -2.9394 6.3284 0.5809 0
M  V30 28 C 4.4077 -2.436 -2.0692 0
M  V30 29 C 6.669 -1.9297 -3.0326 0
M  V30 30 C 2.64 -3.2602 -0.9797 0
M  V30 31 C -2.6004 -3.2725 -2.287 0
M  V30 32 C -2.3085 -2.1988 -0.1477 0
M  V30 33 O -0.2527 6.0789 1.708 0
M  V30 34 C -0.0891 3.6493 1.3683 0 CFG=1
M  V30 35 O 4.924 -3.4351 -1.2764 0
M  V30 36 O 1.5366 -3.7329 -0.7866 0
M  V30 37 C 3.9181 -3.644 -0.2381 0
M  V30 38 N -3.2514 -2.9421 -1.006 0
M  V30 39 C 0.4373 3.3192 2.8087 0 CFG=2
M  V30 40 C -0.7846 2.4569 0.7238 0
M  V30 41 O 4.2329 -2.7468 0.8326 0
M  V30 42 C 3.9699 -5.1113 0.1616 0
M  V30 43 C -3.713 -4.1815 -0.3519 0
M  V30 44 O 1.1192 4.5076 3.2766 0
M  V30 45 C 1.4248 2.129 3.0252 0 CFG=1
M  V30 46 C 3.3957 -2.7557 1.9082 0
M  V30 47 C -4.6206 -3.9638 0.8802 0
M  V30 48 C 0.7682 0.7207 3.2007 0 CFG=2
M  V30 49 C 2.5323 2.1199 1.9604 0
M  V30 50 C 2.4067 -1.8698 2.0816 0
M  V30 51 C -5.8526 -3.1207 0.5444 0
M  V30 52 C -5.0564 -5.3181 1.4469 0
M  V30 53 O -0.4069 0.8714 4.0352 0
M  V30 54 C 1.7422 -0.2911 3.9133 0 CFG=2
M  V30 55 C 1.6272 -1.7464 3.3685 0 CFG=1
M  V30 56 C -1.5928 0.3864 3.5775 0
M  V30 57 C 1.546 -0.3047 5.4398 0
M  V30 58 O 0.2548 -2.0663 3.1746 0
M  V30 59 O -1.8151 -0.0383 2.4553 0
M  V30 60 C -2.6283 0.4912 4.6547 0
M  V30 61 C 0.0059 -3.4359 2.8887 0
M  V30 62 H 1.4328 2.9643 -4.5086 0
M  V30 63 H -0.6971 6.2698 -3.5852 0
M  V30 64 H -0.7965 4.4317 -6.6044 0
M  V30 65 H 0.8908 4.5443 -6.0628 0
M  V30 66 H -0.1838 5.9395 -5.9182 0
M  V30 67 H -1.8961 3.8538 -2.1268 0
M  V30 68 H -1.6548 0.7704 -3.1812 0
M  V30 69 H -0.7162 6.4799 -1.0524 0
M  V30 70 H -2.5996 4.2966 0.0853 0
M  V30 71 H 6.2418 0.2015 -4.1318 0
M  V30 72 H -3.0594 -1.4426 -3.3265 0
M  V30 73 H -1.6712 -2.3067 -3.9734 0
M  V30 74 H -2.7007 -0.2132 -0.8876 0
M  V30 75 H -1.1132 -0.4128 -0.1556 0
M  V30 76 H -1.6794 4.768 2.3255 0
M  V30 77 H -3.6586 6.4837 -0.2315 0
M  V30 78 H -2.4131 7.2752 0.7457 0
M  V30 79 H -3.5114 6.0984 1.4863 0
M  V30 80 H 6.979 -1.8767 -4.0814 0
M  V30 81 H 6.935 -2.9316 -2.681 0
M  V30 82 H 7.2379 -1.1994 -2.4489 0
M  V30 83 H -1.7386 -3.9345 -2.1298 0
M  V30 84 H -3.3069 -3.8149 -2.9275 0
M  V30 85 H -2.7933 -1.9258 0.7943 0
M  V30 86 H -1.4394 -2.8194 0.1053 0
M  V30 87 H 0.442 5.806 2.3456 0
M  V30 88 H 0.7724 3.9338 0.7501 0
M  V30 89 H -0.4249 3.2048 3.4745 0
M  V30 90 H -1.6997 2.1982 1.2618 0
M  V30 91 H -1.0551 2.6581 -0.3137 0
M  V30 92 H -0.1334 1.5855 0.6792 0
M  V30 93 H 3.8442 -5.7635 -0.7094 0
M  V30 94 H 4.9378 -5.3509 0.6154 0
M  V30 95 H 3.1916 -5.3622 0.8896 0
M  V30 96 H -2.8527 -4.8021 -0.0664 0
M  V30 97 H -4.2894 -4.7676 -1.0808 0
M  V30 98 H 1.3066 4.3784 4.2248 0
M  V30 99 H 1.9305 2.341 3.9788 0
M  V30 100 H 3.7022 -3.4794 2.6541 0
M  V30 101 H -4.0571 -3.4528 1.6693 0
M  V30 102 H 0.5043 0.3345 2.2135 0
M  V30 103 H 3.3457 1.4401 2.2285 0
M  V30 104 H 2.9747 3.1153 1.8479 0
M  V30 105 H 2.1525 1.8054 0.984 0
M  V30 106 H 2.1677 -1.1671 1.2888 0
M  V30 107 H -6.4428 -3.5813 -0.2549 0
M  V30 108 H -5.5697 -2.1137 0.2218 0
M  V30 109 H -6.4993 -3.0133 1.4219 0
M  V30 110 H -5.6441 -5.8853 0.7172 0
M  V30 111 H -4.1855 -5.9211 1.7245 0
M  V30 112 H -5.6693 -5.1846 2.3447 0
M  V30 113 H 2.7794 0.0266 3.752 0
M  V30 114 H 2.0451 -2.434 4.1164 0
M  V30 115 H 1.6054 0.7073 5.8531 0
M  V30 116 H 0.5831 -0.7419 5.7239 0
M  V30 117 H 2.3308 -0.8999 5.9198 0
M  V30 118 H -2.2858 -0.0319 5.5512 0
M  V30 119 H -2.8275 1.5428 4.8748 0
M  V30 120 H -3.5543 0.0191 4.3144 0
M  V30 121 H 0.423 -4.0763 3.6716 0
M  V30 122 H -1.077 -3.585 2.8594 0
M  V30 123 H 0.413 -3.7146 1.9134 0
M  V30 END ATOM
M  V30 BEGIN BOND
M  V30 1 2 1 2
M  V30 2 1 2 3
M  V30 3 1 2 4
M  V30 4 1 3 5
M  V30 5 2 4 6
M  V30 6 1 4 7
M  V30 7 1 5 8
M  V30 8 2 5 9
M  V30 9 1 6 10
M  V30 10 2 8 11
M  V30 11 1 8 12
M  V30 12 1 9 13
M  V30 13 1 9 14
M  V30 14 2 10 15
M  V30 15 2 12 16
M  V30 16 1 12 17
M  V30 17 1 13 18
M  V30 18 2 14 19
M  V30 19 1 15 20
M  V30 20 1 16 21
M  V30 21 1 16 22
M  V30 22 2 17 23
M  V30 23 1 18 24
M  V30 24 1 18 25
M  V30 25 1 20 26
M  V30 26 1 20 27
M  V30 27 2 22 28
M  V30 28 1 22 29
M  V30 29 1 23 30
M  V30 30 1 24 31
M  V30 31 1 25 32
M  V30 32 1 26 33
M  V30 33 1 26 34
M  V30 34 1 28 35
M  V30 35 2 30 36
M  V30 36 1 30 37
M  V30 37 1 31 38
M  V30 38 1 34 39
M  V30 39 1 34 40
M  V30 40 1 37 41
M  V30 41 1 37 42
M  V30 42 1 38 43
M  V30 43 1 39 44
M  V30 44 1 39 45
M  V30 45 1 41 46
M  V30 46 1 43 47
M  V30 47 1 45 48
M  V30 48 1 45 49
M  V30 49 2 46 50
M  V30 50 1 47 51
M  V30 51 1 47 52
M  V30 52 1 48 53
M  V30 53 1 48 54
M  V30 54 1 50 55
M  V30 55 1 53 56
M  V30 56 1 54 57
M  V30 57 1 55 58
M  V30 58 2 56 59
M  V30 59 1 56 60
M  V30 60 1 58 61
M  V30 61 1 14 17
M  V30 62 1 18 19
M  V30 63 1 23 28
M  V30 64 1 32 38
M  V30 65 1 35 37
M  V30 66 1 54 55
M  V30 67 1 3 62
M  V30 68 1 6 63
M  V30 69 1 7 64
M  V30 70 1 7 65
M  V30 71 1 7 66
M  V30 72 1 10 67
M  V30 73 1 13 68
M  V30 74 1 15 69
M  V30 75 1 20 70
M  V30 76 1 21 71
M  V30 77 1 24 72
M  V30 78 1 24 73
M  V30 79 1 25 74
M  V30 80 1 25 75
M  V30 81 1 26 76
M  V30 82 1 27 77
M  V30 83 1 27 78
M  V30 84 1 27 79
M  V30 85 1 29 80
M  V30 86 1 29 81
M  V30 87 1 29 82
M  V30 88 1 31 83
M  V30 89 1 31 84
M  V30 90 1 32 85
M  V30 91 1 32 86
M  V30 92 1 33 87
M  V30 93 1 34 88
M  V30 94 1 39 89
M  V30 95 1 40 90
M  V30 96 1 40 91
M  V30 97 1 40 92
M  V30 98 1 42 93
M  V30 99 1 42 94
M  V30 100 1 42 95
M  V30 101 1 43 96
M  V30 102 1 43 97
M  V30 103 1 44 98
M  V30 104 1 45 99
M  V30 105 1 46 100
M  V30 106 1 47 101
M  V30 107 1 48 102
M  V30 108 1 49 103
M  V30 109 1 49 104
M  V30 110 1 49 105
M  V30 111 1 50 106
M  V30 112 1 51 107
M  V30 113 1 51 108
M  V30 114 1 51 109
M  V30 115 1 52 110
M  V30 116 1 52 111
M  V30 117 1 52 112
M  V30 118 1 54 113
M  V30 119 1 55 114
M  V30 120 1 57 115
M  V30 121 1 57 116
M  V30 122 1 57 117
M  V30 123 1 60 118
M  V30 124 1 60 119
M  V30 125 1 60 120
M  V30 126 1 61 121
M  V30 127 1 61 122
M  V30 128 1 61 123
M  V30 END BOND
M  V30 BEGIN COLLECTION
M  V30 MDLV30/STEABS ATOMS=(8 20 26 34 39 45 48 54 55)
M  V30 END COLLECTION
M  V30 END CTAB
M  END
>  <level_0>
3391

>  <index>
3391

>  <NO.>
3392

>  <Name>


>  <SMILES>
CO[C@H]1/C=C/OC2(C)Oc3c(C)c(O)c4c(c3C2=O)C2=NC3(CCN(CC(C)C)CC3)NC2=C(NC(=O)/C(C)=C\C=C\[C@H](C)[C@H](O)[C@H](C)[C@H](O)[C@H](C)[C@H](OC(C)=O)[C@H]1C)C4=O

>  <logBB>


>  <Class>
-1

>  <MW>
846.44

>  <nHBAcc>
14

>  <nHBDon>
5

>  <SLogP>
4.62

>  <TopoPSA>
205.55

>  <MMFF94 Energy>
159.54

$$$$
CO[C@H]1[C@@H](O)CC(=O)O[C@@H](C)C/C=C/C=C/[C@@H](O)[C@@H](C)C[C@@H](CC=O)[C@@H]1O[C@@H]1O[C@@H](C)[C@@H](O[C@H]2CC(C)(O)[C@@H](O)[C@H](C)O2)[C@@H](N(C)C)[C@@H]1O
Actelion Java MolfileCreator 2.0

  0  0  0  0  0  0              0 V3000
M  V30 BEGIN CTAB
M  V30 COUNTS 108 110 0 0 0
M  V30 BEGIN ATOM
M  V30 1 O 0.0 3.6463 5.4733 0
M  V30 2 C -0.6947 3.7322 4.4692 0
M  V30 3 O -2.0347 3.9442 4.4484 0
M  V30 4 C -0.1325 3.6829 3.0711 0
M  V30 5 C -2.6982 4.1884 5.7079 0 CFG=2
M  V30 6 C 0.3135 2.2695 2.6759 0 CFG=2
M  V30 7 C -2.7379 2.9629 6.6463 0
M  V30 8 C -4.1021 4.6836 5.3646 0
M  V30 9 O 1.5039 2.3762 1.8768 0
M  V30 10 C -0.7906 1.5363 1.8737 0 CFG=2
M  V30 11 C -3.2246 1.688 6.0099 0
M  V30 12 O -1.9819 1.5184 2.6661 0
M  V30 13 C -0.4478 0.0807 1.4031 0 CFG=1
M  V30 14 C -2.4695 0.5811 5.957 0
M  V30 15 C -3.1501 1.849 1.9242 0
M  V30 16 O 0.5886 0.098 0.4122 0
M  V30 17 C -0.0279 -0.8973 2.5532 0 CFG=1
M  V30 18 C -2.8659 -0.6259 5.2723 0
M  V30 19 C 0.1192 0.3549 -0.9173 0 CFG=2
M  V30 20 C -0.558 -2.3479 2.306 0
M  V30 21 C 1.5158 -0.9676 2.6848 0
M  V30 22 C -2.0025 -1.6372 5.0906 0
M  V30 23 O -0.2805 -0.8575 -1.5383 0
M  V30 24 C 1.2392 1.0835 -1.6899 0 CFG=1
M  V30 25 C -2.0003 -2.7359 2.7377 0 CFG=1
M  V30 26 C 2.0203 -1.5491 3.9856 0
M  V30 27 C -2.2205 -2.8735 4.271 0 CFG=2
M  V30 28 C 0.802 -1.7791 -1.7208 0 CFG=2
M  V30 29 O 1.6276 2.2643 -0.9625 0
M  V30 30 C 2.4435 0.127 -1.9042 0 CFG=1
M  V30 31 C -3.0913 -1.9164 2.0485 0
M  V30 32 O 1.3132 -1.9956 4.8812 0
M  V30 33 O -3.5413 -3.3639 4.51 0
M  V30 34 C 1.941 -1.1863 -2.5913 0 CFG=2
M  V30 35 C 0.1986 -3.0425 -2.3197 0
M  V30 36 N 3.6593 0.6704 -2.5849 0
M  V30 37 O 1.4365 -0.9601 -3.9206 0
M  V30 38 C 3.3873 1.7932 -3.4888 0
M  V30 39 C 4.6774 1.0804 -1.6138 0
M  V30 40 C 2.4056 -1.1464 -4.952 0 CFG=2
M  V30 41 O 2.2676 -0.1556 -5.9696 0
M  V30 42 C 2.3475 -2.5565 -5.5533 0
M  V30 43 C 1.0359 -0.2557 -6.6866 0 CFG=2
M  V30 44 C 1.1756 -2.7739 -6.5231 0
M  V30 45 C 0.9998 -1.5722 -7.4752 0 CFG=1
M  V30 46 C 0.9526 0.9522 -7.6153 0
M  V30 47 O -0.059 -2.9298 -5.802 0
M  V30 48 C 1.3755 -4.072 -7.3166 0
M  V30 49 O -0.2416 -1.7033 -8.1776 0
M  V30 50 H -0.8562 4.0957 2.3582 0
M  V30 51 H 0.7113 4.3843 3.0531 0
M  V30 52 H -2.1754 5.0077 6.2184 0
M  V30 53 H 0.564 1.6964 3.5752 0
M  V30 54 H -1.7362 2.8036 7.0627 0
M  V30 55 H -3.3825 3.188 7.5053 0
M  V30 56 H -4.6492 3.9518 4.7611 0
M  V30 57 H -4.0424 5.5965 4.7615 0
M  V30 58 H -4.6807 4.9035 6.2668 0
M  V30 59 H 2.1802 2.8117 2.4291 0
M  V30 60 H -0.9554 2.1425 0.9726 0
M  V30 61 H -4.2137 1.6964 5.5603 0
M  V30 62 H -1.3526 -0.3206 0.9394 0
M  V30 63 H -1.4728 0.5948 6.3963 0
M  V30 64 H -3.2695 1.1841 1.0641 0
M  V30 65 H -4.0169 1.7359 2.5806 0
M  V30 66 H -3.1017 2.8894 1.5892 0
M  V30 67 H -0.4398 -0.5233 3.4891 0
M  V30 68 H -3.8559 -0.6649 4.8244 0
M  V30 69 H -0.7521 1.018 -0.8848 0
M  V30 70 H 0.1061 -3.0676 2.8014 0
M  V30 71 H -0.4572 -2.5676 1.2341 0
M  V30 72 H 1.9616 0.0276 2.6273 0
M  V30 73 H 1.9479 -1.5673 1.8748 0
M  V30 74 H -1.0071 -1.562 5.525 0
M  V30 75 H 0.8393 1.4033 -2.6585 0
M  V30 76 H -2.1457 -3.755 2.346 0
M  V30 77 H 3.1194 -1.5602 4.0892 0
M  V30 78 H -1.5395 -3.6471 4.6469 0
M  V30 79 H 1.2073 -2.045 -0.7361 0
M  V30 80 H 1.6802 2.015 -0.0127 0
M  V30 81 H 2.7755 -0.1867 -0.9034 0
M  V30 82 H -3.1061 -0.886 2.4007 0
M  V30 83 H -4.083 -2.3417 2.2354 0
M  V30 84 H -2.9486 -1.9144 0.963 0
M  V30 85 H -3.6757 -3.3362 5.4731 0
M  V30 86 H 2.7533 -1.9254 -2.6223 0
M  V30 87 H 0.968 -3.7767 -2.5745 0
M  V30 88 H -0.4925 -3.5022 -1.6041 0
M  V30 89 H -0.396 -2.8119 -3.2072 0
M  V30 90 H 3.1532 2.7216 -2.9569 0
M  V30 91 H 2.5634 1.581 -4.1729 0
M  V30 92 H 4.267 1.9841 -4.114 0
M  V30 93 H 4.3258 1.8778 -0.9501 0
M  V30 94 H 4.9868 0.2283 -0.9982 0
M  V30 95 H 5.58 1.432 -2.1263 0
M  V30 96 H 3.413 -1.0085 -4.5472 0
M  V30 97 H 2.3111 -3.2981 -4.7473 0
M  V30 98 H 3.2801 -2.7091 -6.1123 0
M  V30 99 H 0.1888 -0.1911 -5.9919 0
M  V30 100 H 1.8109 -1.573 -8.2138 0
M  V30 101 H 1.7887 0.9612 -8.3231 0
M  V30 102 H 1.0221 1.8801 -7.037 0
M  V30 103 H 0.0148 0.9652 -8.1784 0
M  V30 104 H 0.0292 -3.7029 -5.218 0
M  V30 105 H 0.5094 -4.2853 -7.9529 0
M  V30 106 H 2.2677 -4.0244 -7.9491 0
M  V30 107 H 1.4788 -4.9282 -6.64 0
M  V30 108 H -0.8765 -2.0093 -7.4965 0
M  V30 END ATOM
M  V30 BEGIN BOND
M  V30 1 2 1 2
M  V30 2 1 2 3
M  V30 3 1 2 4
M  V30 4 1 3 5
M  V30 5 1 4 6
M  V30 6 1 5 7
M  V30 7 1 5 8
M  V30 8 1 6 9
M  V30 9 1 6 10
M  V30 10 1 7 11
M  V30 11 1 10 12
M  V30 12 1 10 13
M  V30 13 2 11 14
M  V30 14 1 12 15
M  V30 15 1 13 16
M  V30 16 1 13 17
M  V30 17 1 14 18
M  V30 18 1 16 19
M  V30 19 1 17 20
M  V30 20 1 17 21
M  V30 21 2 18 22
M  V30 22 1 19 23
M  V30 23 1 19 24
M  V30 24 1 20 25
M  V30 25 1 21 26
M  V30 26 1 22 27
M  V30 27 1 23 28
M  V30 28 1 24 29
M  V30 29 1 24 30
M  V30 30 1 25 31
M  V30 31 2 26 32
M  V30 32 1 27 33
M  V30 33 1 28 34
M  V30 34 1 28 35
M  V30 35 1 30 36
M  V30 36 1 34 37
M  V30 37 1 36 38
M  V30 38 1 36 39
M  V30 39 1 37 40
M  V30 40 1 40 41
M  V30 41 1 40 42
M  V30 42 1 41 43
M  V30 43 1 42 44
M  V30 44 1 43 45
M  V30 45 1 43 46
M  V30 46 1 44 47
M  V30 47 1 44 48
M  V30 48 1 45 49
M  V30 49 1 25 27
M  V30 50 1 30 34
M  V30 51 1 44 45
M  V30 52 1 4 50
M  V30 53 1 4 51
M  V30 54 1 5 52
M  V30 55 1 6 53
M  V30 56 1 7 54
M  V30 57 1 7 55
M  V30 58 1 8 56
M  V30 59 1 8 57
M  V30 60 1 8 58
M  V30 61 1 9 59
M  V30 62 1 10 60
M  V30 63 1 11 61
M  V30 64 1 13 62
M  V30 65 1 14 63
M  V30 66 1 15 64
M  V30 67 1 15 65
M  V30 68 1 15 66
M  V30 69 1 17 67
M  V30 70 1 18 68
M  V30 71 1 19 69
M  V30 72 1 20 70
M  V30 73 1 20 71
M  V30 74 1 21 72
M  V30 75 1 21 73
M  V30 76 1 22 74
M  V30 77 1 24 75
M  V30 78 1 25 76
M  V30 79 1 26 77
M  V30 80 1 27 78
M  V30 81 1 28 79
M  V30 82 1 29 80
M  V30 83 1 30 81
M  V30 84 1 31 82
M  V30 85 1 31 83
M  V30 86 1 31 84
M  V30 87 1 33 85
M  V30 88 1 34 86
M  V30 89 1 35 87
M  V30 90 1 35 88
M  V30 91 1 35 89
M  V30 92 1 38 90
M  V30 93 1 38 91
M  V30 94 1 38 92
M  V30 95 1 39 93
M  V30 96 1 39 94
M  V30 97 1 39 95
M  V30 98 1 40 96
M  V30 99 1 42 97
M  V30 100 1 42 98
M  V30 101 1 43 99
M  V30 102 1 45 100
M  V30 103 1 46 101
M  V30 104 1 46 102
M  V30 105 1 46 103
M  V30 106 1 47 104
M  V30 107 1 48 105
M  V30 108 1 48 106
M  V30 109 1 48 107
M  V30 110 1 49 108
M  V30 END BOND
M  V30 BEGIN COLLECTION
M  V30 MDLV30/STEABS ATOMS=(15 5 6 10 13 17 19 24 25 27 28 30 34 40 43 45)
M  V30 END COLLECTION
M  V30 END CTAB
M  END
>  <level_0>
3400

>  <index>
3400

>  <NO.>
3401

>  <Name>


>  <SMILES>
CO[C@H]1[C@@H](O)CC(=O)O[C@@H](C)C/C=C/C=C/[C@@H](O)[C@@H](C)C[C@@H](CC=O)[C@@H]1O[C@@H]1O[C@@H](C)[C@@H](O[C@H]2CC(C)(O)[C@@H](O)[C@H](C)O2)[C@@H](N(C)C)[C@@H]1O

>  <logBB>


>  <Class>
-1

>  <MW>
701.4

>  <nHBAcc>
14

>  <nHBDon>
5

>  <SLogP>
0.85

>  <TopoPSA>
193.91

>  <MMFF94 Energy>
200.17

$$$$
COc1cc([C@H]2c3cc4c(cc3[C@@H](O[C@H]3O[C@H]5CO[C@H](c6cccs6)O[C@H]5[C@@H](O)[C@@H]3O)[C@@H]3COC(=O)[C@@H]23)OCO4)cc(OC)c1OC
Actelion Java MolfileCreator 2.0

  0  0  0  0  0  0              0 V3000
M  V30 BEGIN CTAB
M  V30 COUNTS 81 88 0 0 0
M  V30 BEGIN ATOM
M  V30 1 S -4.0909 -6.4694 -2.5349 0
M  V30 2 C -4.6942 -5.1561 -1.5972 0
M  V30 3 C -5.1906 -7.5718 -1.8343 0
M  V30 4 C -5.757 -5.5689 -0.81 0
M  V30 5 C -4.1203 -3.7685 -1.7641 0 CFG=2
M  V30 6 C -6.0312 -6.961 -0.9333 0
M  V30 7 O -2.7031 -3.7998 -1.9491 0
M  V30 8 O -4.5535 -2.9024 -0.7155 0
M  V30 9 C -1.9724 -4.0376 -0.7397 0 CFG=1
M  V30 10 C -3.8525 -3.0617 0.5163 0
M  V30 11 C -0.4856 -3.9266 -1.0661 0 CFG=1
M  V30 12 C -2.3412 -3.0104 0.324 0 CFG=2
M  V30 13 O -0.1448 -4.7924 -2.1603 0
M  V30 14 C -0.0884 -2.4936 -1.4251 0 CFG=2
M  V30 15 O -1.9888 -1.6824 -0.0898 0
M  V30 16 O 1.3456 -2.443 -1.5393 0
M  V30 17 C -0.598 -1.51 -0.35 0 CFG=2
M  V30 18 O -0.3416 -0.1877 -0.8234 0
M  V30 19 C -0.9413 0.8843 -0.0951 0 CFG=2
M  V30 20 C -0.618 2.1452 -0.91 0
M  V30 21 C -0.4103 0.9669 1.3344 0 CFG=1
M  V30 22 C 0.0818 3.2669 -0.3582 0
M  V30 23 C -1.0334 2.1887 -2.2561 0
M  V30 24 C -0.4493 2.3881 1.8564 0 CFG=2
M  V30 25 C -1.202 0.2729 2.4184 0
M  V30 26 C 0.3721 4.385 -1.1627 0
M  V30 27 C 0.5355 3.2763 1.1057 0 CFG=1
M  V30 28 C -0.7344 3.3067 -3.0041 0
M  V30 29 C -0.2832 2.1647 3.3266 0
M  V30 30 O -0.7617 0.9123 3.6292 0
M  V30 31 C -0.0496 4.3717 -2.4737 0
M  V30 32 C 2.0094 2.9197 1.2962 0
M  V30 33 O -1.0587 3.4967 -4.3111 0
M  V30 34 O 0.1157 2.9702 4.149 0
M  V30 35 O 0.1442 5.3677 -3.3789 0
M  V30 36 C 2.6902 2.0294 0.4438 0
M  V30 37 C 2.7111 3.4763 2.3808 0
M  V30 38 C -0.4842 4.7987 -4.5458 0
M  V30 39 C 4.0268 1.6875 0.668 0
M  V30 40 C 4.049 3.1501 2.6222 0
M  V30 41 O 4.7419 0.8156 -0.1129 0
M  V30 42 C 4.7071 2.2782 1.7425 0
M  V30 43 O 4.7884 3.6531 3.6623 0
M  V30 44 C 3.9878 -0.078 -0.9255 0
M  V30 45 O 6.0146 1.9251 1.9934 0
M  V30 46 C 4.055 4.1106 4.7926 0
M  V30 47 C 6.8901 2.8136 1.3018 0
M  V30 48 H -5.1786 -8.6125 -2.1284 0
M  V30 49 H -6.3176 -4.8953 -0.1714 0
M  V30 50 H -4.5415 -3.3583 -2.6891 0
M  V30 51 H -6.8137 -7.4851 -0.3979 0
M  V30 52 H -2.1862 -5.0574 -0.3987 0
M  V30 53 H -4.1525 -4.0022 0.9902 0
M  V30 54 H -4.1763 -2.2455 1.1709 0
M  V30 55 H 0.1104 -4.2649 -0.2099 0
M  V30 56 H -1.8387 -3.2208 1.2756 0
M  V30 57 H -0.8854 -4.725 -2.7975 0
M  V30 58 H -0.4873 -2.2172 -2.4088 0
M  V30 59 H 1.5822 -3.1805 -2.1363 0
M  V30 60 H -0.025 -1.6587 0.5723 0
M  V30 61 H -2.0338 0.7789 -0.0975 0
M  V30 62 H 0.6091 0.5629 1.3821 0
M  V30 63 H -1.5631 1.355 -2.707 0
M  V30 64 H -1.4637 2.8048 1.7437 0
M  V30 65 H -0.9787 -0.7942 2.4882 0
M  V30 66 H -2.2853 0.4056 2.3247 0
M  V30 67 H 0.9153 5.2402 -0.773 0
M  V30 68 H 0.3962 4.3029 1.4753 0
M  V30 69 H 2.1645 1.6018 -0.4045 0
M  V30 70 H 2.1917 4.1717 3.0352 0
M  V30 71 H 0.2647 4.7137 -5.3415 0
M  V30 72 H -1.2778 5.4762 -4.8813 0
M  V30 73 H 3.2254 -0.6042 -0.3413 0
M  V30 74 H 4.6773 -0.8276 -1.325 0
M  V30 75 H 3.5428 0.4498 -1.7748 0
M  V30 76 H 3.5829 5.0758 4.5837 0
M  V30 77 H 4.7645 4.2594 5.6122 0
M  V30 78 H 3.316 3.372 5.1218 0
M  V30 79 H 6.7486 2.7517 0.2174 0
M  V30 80 H 7.9175 2.5112 1.5249 0
M  V30 81 H 6.7618 3.8471 1.6421 0
M  V30 END ATOM
M  V30 BEGIN BOND
M  V30 1 1 1 2
M  V30 2 1 1 3
M  V30 3 2 2 4
M  V30 4 1 2 5
M  V30 5 2 3 6
M  V30 6 1 5 7
M  V30 7 1 5 8
M  V30 8 1 7 9
M  V30 9 1 8 10
M  V30 10 1 9 11
M  V30 11 1 9 12
M  V30 12 1 11 13
M  V30 13 1 11 14
M  V30 14 1 12 15
M  V30 15 1 14 16
M  V30 16 1 14 17
M  V30 17 1 17 18
M  V30 18 1 18 19
M  V30 19 1 19 20
M  V30 20 1 19 21
M  V30 21 2 20 22
M  V30 22 1 20 23
M  V30 23 1 21 24
M  V30 24 1 21 25
M  V30 25 1 22 26
M  V30 26 1 22 27
M  V30 27 2 23 28
M  V30 28 1 24 29
M  V30 29 1 25 30
M  V30 30 2 26 31
M  V30 31 1 27 32
M  V30 32 1 28 33
M  V30 33 2 29 34
M  V30 34 1 31 35
M  V30 35 2 32 36
M  V30 36 1 32 37
M  V30 37 1 33 38
M  V30 38 1 36 39
M  V30 39 2 37 40
M  V30 40 1 39 41
M  V30 41 2 39 42
M  V30 42 1 40 43
M  V30 43 1 41 44
M  V30 44 1 42 45
M  V30 45 1 43 46
M  V30 46 1 45 47
M  V30 47 1 4 6
M  V30 48 1 10 12
M  V30 49 1 15 17
M  V30 50 1 24 27
M  V30 51 1 28 31
M  V30 52 1 29 30
M  V30 53 1 35 38
M  V30 54 1 40 42
M  V30 55 1 3 48
M  V30 56 1 4 49
M  V30 57 1 5 50
M  V30 58 1 6 51
M  V30 59 1 9 52
M  V30 60 1 10 53
M  V30 61 1 10 54
M  V30 62 1 11 55
M  V30 63 1 12 56
M  V30 64 1 13 57
M  V30 65 1 14 58
M  V30 66 1 16 59
M  V30 67 1 17 60
M  V30 68 1 19 61
M  V30 69 1 21 62
M  V30 70 1 23 63
M  V30 71 1 24 64
M  V30 72 1 25 65
M  V30 73 1 25 66
M  V30 74 1 26 67
M  V30 75 1 27 68
M  V30 76 1 36 69
M  V30 77 1 37 70
M  V30 78 1 38 71
M  V30 79 1 38 72
M  V30 80 1 44 73
M  V30 81 1 44 74
M  V30 82 1 44 75
M  V30 83 1 46 76
M  V30 84 1 46 77
M  V30 85 1 46 78
M  V30 86 1 47 79
M  V30 87 1 47 80
M  V30 88 1 47 81
M  V30 END BOND
M  V30 BEGIN COLLECTION
M  V30 MDLV30/STEABS ATOMS=(10 5 9 11 12 14 17 19 21 24 27)
M  V30 END COLLECTION
M  V30 END CTAB
M  END
>  <level_0>
3407

>  <index>
3407

>  <NO.>
3408

>  <Name>


>  <SMILES>
COc1cc([C@H]2c3cc4c(cc3[C@@H](O[C@H]3O[C@H]5CO[C@H](c6cccs6)O[C@H]5[C@@H](O)[C@@H]3O)[C@@H]3COC(=O)[C@@H]23)OCO4)cc(OC)c1OC

>  <logBB>


>  <Class>
-1

>  <MW>
670.17

>  <nHBAcc>
14

>  <nHBDon>
2

>  <SLogP>
3.06

>  <TopoPSA>
149.83

>  <MMFF94 Energy>
161.5

$$$$
COc1cccc2c1C(=O)c1c(O)c3c(c(O)c1C2=O)CC(O)([C@@H](O)CO)C[C@@H]3O
Actelion Java MolfileCreator 2.0

  0  0  0  0  0  0              0 V3000
M  V30 BEGIN CTAB
M  V30 COUNTS 50 53 0 0 0
M  V30 BEGIN ATOM
M  V30 1 O 2.1803 -2.5844 1.2916 0
M  V30 2 C 1.5265 -2.4962 0.2562 0
M  V30 3 C 0.7844 -1.2335 0.0329 0
M  V30 4 C 1.463 -3.5947 -0.7462 0
M  V30 5 C 0.8542 -0.1838 0.9702 0
M  V30 6 C 0.0113 -1.0699 -1.1094 0
M  V30 7 C 2.1595 -4.8122 -0.5762 0
M  V30 8 C 0.6843 -3.4063 -1.8916 0
M  V30 9 O 1.6089 -0.2929 2.1184 0
M  V30 10 C 0.1615 1.0294 0.7817 0
M  V30 11 C -0.0569 -2.1512 -2.107 0
M  V30 12 C -0.7022 0.125 -1.3006 0
M  V30 13 O 2.9144 -4.96 0.5552 0
M  V30 14 C 2.0552 -5.8065 -1.5601 0
M  V30 15 C 0.5896 -4.4095 -2.8653 0
M  V30 16 C -0.6602 1.1649 -0.3532 0
M  V30 17 C 0.2324 2.138 1.8155 0 CFG=1
M  V30 18 O -0.7355 -1.9979 -3.1195 0
M  V30 19 O -1.469 0.3378 -2.4211 0
M  V30 20 C 3.6031 -6.1848 0.7646 0
M  V30 21 C 1.2744 -5.6067 -2.698 0
M  V30 22 C -1.4835 2.4173 -0.598 0
M  V30 23 O 1.5737 2.3529 2.265 0
M  V30 24 C -0.2564 3.4924 1.3066 0
M  V30 25 C -1.6073 3.383 0.6021 0
M  V30 26 O -2.5561 2.82 1.5262 0
M  V30 27 C -2.0907 4.7828 0.0909 0 CFG=1
M  V30 28 O -3.3157 4.6301 -0.6508 0
M  V30 29 C -2.3829 5.8018 1.2019 0
M  V30 30 O -3.4321 5.3149 2.041 0
M  V30 31 H 2.012 -1.1945 2.1366 0
M  V30 32 H 2.5744 -6.7562 -1.4708 0
M  V30 33 H -0.018 -4.2618 -3.757 0
M  V30 34 H -0.3628 1.8335 2.6852 0
M  V30 35 H -1.4327 -0.4658 -2.987 0
M  V30 36 H 2.9037 -7.0243 0.8341 0
M  V30 37 H 4.131 -6.1123 1.7204 0
M  V30 38 H 4.3514 -6.3545 -0.0162 0
M  V30 39 H 1.2015 -6.3861 -3.4536 0
M  V30 40 H -1.0153 2.9414 -1.4417 0
M  V30 41 H -2.4929 2.1095 -0.9006 0
M  V30 42 H 1.9227 1.461 2.4672 0
M  V30 43 H 0.4889 3.9338 0.6305 0
M  V30 44 H -0.3136 4.1635 2.1722 0
M  V30 45 H -2.8632 3.5408 2.1138 0
M  V30 46 H -1.3404 5.1975 -0.5931 0
M  V30 47 H -3.4253 5.4208 -1.2078 0
M  V30 48 H -2.7295 6.7469 0.7706 0
M  V30 49 H -1.5062 6.01 1.8194 0
M  V30 50 H -4.1519 5.0516 1.4286 0
M  V30 END ATOM
M  V30 BEGIN BOND
M  V30 1 2 1 2
M  V30 2 1 2 3
M  V30 3 1 2 4
M  V30 4 2 3 5
M  V30 5 1 3 6
M  V30 6 2 4 7
M  V30 7 1 4 8
M  V30 8 1 5 9
M  V30 9 1 5 10
M  V30 10 1 6 11
M  V30 11 2 6 12
M  V30 12 1 7 13
M  V30 13 1 7 14
M  V30 14 2 8 15
M  V30 15 2 10 16
M  V30 16 1 10 17
M  V30 17 2 11 18
M  V30 18 1 12 19
M  V30 19 1 13 20
M  V30 20 2 14 21
M  V30 21 1 16 22
M  V30 22 1 17 23
M  V30 23 1 17 24
M  V30 24 1 22 25
M  V30 25 1 25 26
M  V30 26 1 25 27
M  V30 27 1 27 28
M  V30 28 1 27 29
M  V30 29 1 29 30
M  V30 30 1 8 11
M  V30 31 1 12 16
M  V30 32 1 15 21
M  V30 33 1 24 25
M  V30 34 1 9 31
M  V30 35 1 14 32
M  V30 36 1 15 33
M  V30 37 1 17 34
M  V30 38 1 19 35
M  V30 39 1 20 36
M  V30 40 1 20 37
M  V30 41 1 20 38
M  V30 42 1 21 39
M  V30 43 1 22 40
M  V30 44 1 22 41
M  V30 45 1 23 42
M  V30 46 1 24 43
M  V30 47 1 24 44
M  V30 48 1 26 45
M  V30 49 1 27 46
M  V30 50 1 28 47
M  V30 51 1 29 48
M  V30 52 1 29 49
M  V30 53 1 30 50
M  V30 END BOND
M  V30 BEGIN COLLECTION
M  V30 MDLV30/STEABS ATOMS=(2 17 27)
M  V30 END COLLECTION
M  V30 END CTAB
M  END
>  <level_0>
3471

>  <index>
3471

>  <NO.>
3472

>  <Name>


>  <SMILES>
COc1cccc2c1C(=O)c1c(O)c3c(c(O)c1C2=O)CC(O)([C@@H](O)CO)C[C@@H]3O

>  <logBB>


>  <Class>
-1

>  <MW>
416.11

>  <nHBAcc>
9

>  <nHBDon>
6

>  <SLogP>
-0.05

>  <TopoPSA>
164.75

>  <MMFF94 Energy>
117.41

$$$$
C[C@@H]1O[C@@H](O[C@H]2[C@@H](O)C[C@H](O[C@H]3[C@@H](O)C[C@@H](O[C@H]4CCC5(C)[C@@H](CC[C@H]6[C@@H]5CCC5(C)[C@H](C7=CC(=O)OC7)CCC65O)C4)O[C@H]3C)O[C@H]2C)C[C@H](O)[C@@H]1O
Actelion Java MolfileCreator 2.0

  0  0  0  0  0  0              0 V3000
M  V30 BEGIN CTAB
M  V30 COUNTS 118 125 0 0 0
M  V30 BEGIN ATOM
M  V30 1 O -0.8031 -5.7939 9.0238 0
M  V30 2 C -0.7495 -4.5842 8.9048 0
M  V30 3 O -1.7659 -3.7123 9.1327 0
M  V30 4 C 0.4331 -3.8378 8.4851 0
M  V30 5 C -1.3069 -2.3816 8.8895 0
M  V30 6 C 0.1012 -2.546 8.4575 0
M  V30 7 C 1.0303 -1.4203 8.0966 0 CFG=1
M  V30 8 C 0.9568 -0.839 6.6444 0
M  V30 9 C 0.9494 -0.1906 9.0132 0
M  V30 10 C 1.8386 0.4365 6.7915 0
M  V30 11 C -0.4769 -0.4483 6.2298 0
M  V30 12 C 1.5013 -1.8883 5.6549 0
M  V30 13 C 1.4067 1.0032 8.1675 0
M  V30 14 O 3.2163 0.0805 6.9674 0
M  V30 15 C 1.7048 1.5204 5.6778 0 CFG=2
M  V30 16 C -0.5306 0.491 5.0236 0
M  V30 17 C 0.2268 1.8064 5.2707 0 CFG=2
M  V30 18 C 2.5835 1.2592 4.4409 0
M  V30 19 C 0.0984 2.9114 4.1403 0
M  V30 20 C 2.5296 2.4157 3.4512 0
M  V30 21 C 1.11 2.7315 2.9683 0 CFG=1
M  V30 22 C -1.3496 3.0567 3.5799 0
M  V30 23 C 0.4081 4.2817 4.8263 0
M  V30 24 C 0.6628 1.7153 1.9085 0
M  V30 25 C -1.7465 2.107 2.4497 0
M  V30 26 C -0.7089 2.0591 1.3333 0 CFG=2
M  V30 27 O -1.0348 1.033 0.3924 0
M  V30 28 C -1.9997 1.425 -0.5828 0 CFG=1
M  V30 29 O -1.4748 2.4529 -1.4197 0
M  V30 30 C -2.3394 0.1815 -1.3991 0
M  V30 31 C -2.3814 2.8575 -2.4572 0 CFG=2
M  V30 32 C -3.2863 0.5466 -2.5315 0 CFG=1
M  V30 33 C -2.7016 1.6766 -3.4036 0 CFG=2
M  V30 34 C -1.7321 4.0252 -3.1926 0
M  V30 35 O -3.6452 -0.6094 -3.2809 0
M  V30 36 O -1.4837 1.3143 -4.0767 0
M  V30 37 C -1.6414 0.4496 -5.1941 0 CFG=2
M  V30 38 O -1.4321 -0.9051 -4.7899 0
M  V30 39 C -0.6815 0.8715 -6.3031 0
M  V30 40 C -0.0809 -1.1774 -4.3703 0 CFG=2
M  V30 41 C 0.7596 0.578 -5.9103 0 CFG=1
M  V30 42 C 0.928 -0.899 -5.5051 0 CFG=2
M  V30 43 C -0.0445 -2.6316 -3.911 0
M  V30 44 O 1.6496 0.9727 -6.9519 0
M  V30 45 O 0.6465 -1.8242 -6.573 0
M  V30 46 C 1.6749 -1.939 -7.5502 0 CFG=2
M  V30 47 O 1.3783 -1.1059 -8.6695 0
M  V30 48 C 1.8256 -3.4021 -7.9506 0
M  V30 49 C 0.2087 -1.5077 -9.4045 0 CFG=2
M  V30 50 C 0.5929 -3.8867 -8.7014 0 CFG=1
M  V30 51 C 0.2924 -2.9638 -9.8861 0 CFG=2
M  V30 52 C 0.0527 -0.5283 -10.5618 0
M  V30 53 O 0.8261 -5.2096 -9.2035 0
M  V30 54 O 1.3258 -3.1259 -10.8688 0
M  V30 55 H 1.3721 -4.3067 8.2512 0
M  V30 56 H -1.3966 -1.8127 9.8191 0
M  V30 57 H -1.9412 -1.9338 8.1219 0
M  V30 58 H 2.0496 -1.8177 8.2305 0
M  V30 59 H 1.5921 -0.319 9.8917 0
M  V30 60 H -0.0631 4.0E-4 9.3836 0
M  V30 61 H -1.0601 -1.347 5.993 0
M  V30 62 H -1.0018 0.0411 7.0594 0
M  V30 63 H 0.8506 -2.7695 5.6219 0
M  V30 64 H 2.4986 -2.2411 5.9372 0
M  V30 65 H 1.5611 -1.507 4.6346 0
M  V30 66 H 2.2287 1.5285 8.6678 0
M  V30 67 H 0.5747 1.7097 8.0861 0
M  V30 68 H 3.5322 -0.3678 6.1661 0
M  V30 69 H 2.1124 2.4399 6.1212 0
M  V30 70 H -1.5911 0.701 4.8576 0
M  V30 71 H -0.1573 -0.0264 4.1382 0
M  V30 72 H -0.2652 2.2404 6.1529 0
M  V30 73 H 2.2934 0.3363 3.9359 0
M  V30 74 H 3.6317 1.14 4.737 0
M  V30 75 H 2.9636 3.3069 3.9211 0
M  V30 76 H 3.1773 2.1893 2.5952 0
M  V30 77 H 1.1766 3.6923 2.4356 0
M  V30 78 H -2.0792 2.9797 4.396 0
M  V30 79 H -1.4706 4.073 3.1782 0
M  V30 80 H 0.3503 5.1075 4.1073 0
M  V30 81 H 1.4057 4.3179 5.2714 0
M  V30 82 H -0.3154 4.4934 5.6224 0
M  V30 83 H 0.6609 0.6929 2.2985 0
M  V30 84 H 1.3887 1.6975 1.0841 0
M  V30 85 H -1.9327 1.0934 2.8151 0
M  V30 86 H -2.7127 2.4336 2.0469 0
M  V30 87 H -0.6456 3.033 0.8321 0
M  V30 88 H -2.9021 1.7927 -0.0801 0
M  V30 89 H -2.78 -0.5921 -0.7584 0
M  V30 90 H -1.4249 -0.2703 -1.7998 0
M  V30 91 H -3.3052 3.219 -1.9869 0
M  V30 92 H -4.224 0.9099 -2.092 0
M  V30 93 H -3.434 1.998 -4.1545 0
M  V30 94 H -0.7468 3.7547 -3.5871 0
M  V30 95 H -1.5687 4.8605 -2.5027 0
M  V30 96 H -2.3609 4.3742 -4.0171 0
M  V30 97 H -2.821 -0.9981 -3.643 0
M  V30 98 H -2.6604 0.522 -5.5919 0
M  V30 99 H -0.79 1.9404 -6.5225 0
M  V30 100 H -0.9246 0.3364 -7.2269 0
M  V30 101 H 0.1562 -0.5444 -3.5067 0
M  V30 102 H 1.0245 1.2025 -5.0481 0
M  V30 103 H 1.9464 -1.0817 -5.1403 0
M  V30 104 H -0.3776 -3.3119 -4.7021 0
M  V30 105 H -0.7311 -2.7774 -3.0696 0
M  V30 106 H 0.9608 -2.9226 -3.5927 0
M  V30 107 H 1.4264 0.4595 -7.7562 0
M  V30 108 H 2.6352 -1.6073 -7.1384 0
M  V30 109 H 2.7114 -3.5256 -8.5861 0
M  V30 110 H 1.9828 -4.031 -7.0662 0
M  V30 111 H -0.6627 -1.4006 -8.7477 0
M  V30 112 H -0.2748 -3.9272 -8.0327 0
M  V30 113 H -0.6433 -3.2647 -10.3706 0
M  V30 114 H 0.9419 -0.5205 -11.2012 0
M  V30 115 H -0.0625 0.492 -10.1797 0
M  V30 116 H -0.8215 -0.7706 -11.1732 0
M  V30 117 H 0.9563 -5.7907 -8.4327 0
M  V30 118 H 1.4741 -4.0923 -10.9155 0
M  V30 END ATOM
M  V30 BEGIN BOND
M  V30 1 2 1 2
M  V30 2 1 2 3
M  V30 3 1 2 4
M  V30 4 1 3 5
M  V30 5 2 4 6
M  V30 6 1 6 7
M  V30 7 1 7 8
M  V30 8 1 7 9
M  V30 9 1 8 10
M  V30 10 1 8 11
M  V30 11 1 8 12
M  V30 12 1 9 13
M  V30 13 1 10 14
M  V30 14 1 10 15
M  V30 15 1 11 16
M  V30 16 1 15 17
M  V30 17 1 15 18
M  V30 18 1 17 19
M  V30 19 1 18 20
M  V30 20 1 19 21
M  V30 21 1 19 22
M  V30 22 1 19 23
M  V30 23 1 21 24
M  V30 24 1 22 25
M  V30 25 1 24 26
M  V30 26 1 26 27
M  V30 27 1 27 28
M  V30 28 1 28 29
M  V30 29 1 28 30
M  V30 30 1 29 31
M  V30 31 1 30 32
M  V30 32 1 31 33
M  V30 33 1 31 34
M  V30 34 1 32 35
M  V30 35 1 33 36
M  V30 36 1 36 37
M  V30 37 1 37 38
M  V30 38 1 37 39
M  V30 39 1 38 40
M  V30 40 1 39 41
M  V30 41 1 40 42
M  V30 42 1 40 43
M  V30 43 1 41 44
M  V30 44 1 42 45
M  V30 45 1 45 46
M  V30 46 1 46 47
M  V30 47 1 46 48
M  V30 48 1 47 49
M  V30 49 1 48 50
M  V30 50 1 49 51
M  V30 51 1 49 52
M  V30 52 1 50 53
M  V30 53 1 51 54
M  V30 54 1 5 6
M  V30 55 1 10 13
M  V30 56 1 16 17
M  V30 57 1 20 21
M  V30 58 1 25 26
M  V30 59 1 32 33
M  V30 60 1 41 42
M  V30 61 1 50 51
M  V30 62 1 4 55
M  V30 63 1 5 56
M  V30 64 1 5 57
M  V30 65 1 7 58
M  V30 66 1 9 59
M  V30 67 1 9 60
M  V30 68 1 11 61
M  V30 69 1 11 62
M  V30 70 1 12 63
M  V30 71 1 12 64
M  V30 72 1 12 65
M  V30 73 1 13 66
M  V30 74 1 13 67
M  V30 75 1 14 68
M  V30 76 1 15 69
M  V30 77 1 16 70
M  V30 78 1 16 71
M  V30 79 1 17 72
M  V30 80 1 18 73
M  V30 81 1 18 74
M  V30 82 1 20 75
M  V30 83 1 20 76
M  V30 84 1 21 77
M  V30 85 1 22 78
M  V30 86 1 22 79
M  V30 87 1 23 80
M  V30 88 1 23 81
M  V30 89 1 23 82
M  V30 90 1 24 83
M  V30 91 1 24 84
M  V30 92 1 25 85
M  V30 93 1 25 86
M  V30 94 1 26 87
M  V30 95 1 28 88
M  V30 96 1 30 89
M  V30 97 1 30 90
M  V30 98 1 31 91
M  V30 99 1 32 92
M  V30 100 1 33 93
M  V30 101 1 34 94
M  V30 102 1 34 95
M  V30 103 1 34 96
M  V30 104 1 35 97
M  V30 105 1 37 98
M  V30 106 1 39 99
M  V30 107 1 39 100
M  V30 108 1 40 101
M  V30 109 1 41 102
M  V30 110 1 42 103
M  V30 111 1 43 104
M  V30 112 1 43 105
M  V30 113 1 43 106
M  V30 114 1 44 107
M  V30 115 1 46 108
M  V30 116 1 48 109
M  V30 117 1 48 110
M  V30 118 1 49 111
M  V30 119 1 50 112
M  V30 120 1 51 113
M  V30 121 1 52 114
M  V30 122 1 52 115
M  V30 123 1 52 116
M  V30 124 1 53 117
M  V30 125 1 54 118
M  V30 END BOND
M  V30 BEGIN COLLECTION
M  V30 MDLV30/STEABS ATOMS=(17 7 15 17 21 26 28 31 32 33 37 40 41 42 46 49 50 51)
M  V30 END COLLECTION
M  V30 END CTAB
M  END
>  <level_0>
3521

>  <index>
3521

>  <NO.>
3522

>  <Name>


>  <SMILES>
C[C@@H]1O[C@@H](O[C@H]2[C@@H](O)C[C@H](O[C@H]3[C@@H](O)C[C@@H](O[C@H]4CCC5(C)[C@@H](CC[C@H]6[C@@H]5CCC5(C)[C@H](C7=CC(=O)OC7)CCC65O)C4)O[C@H]3C)O[C@H]2C)C[C@H](O)[C@@H]1O

>  <logBB>


>  <Class>
-1

>  <MW>
764.43

>  <nHBAcc>
13

>  <nHBDon>
5

>  <SLogP>
3.25

>  <TopoPSA>
182.83

>  <MMFF94 Energy>
154.3

$$$$
C[C@@H]1O[C@H]1P(=O)(O)O
Actelion Java MolfileCreator 2.0

  0  0  0  0  0  0              0 V3000
M  V30 BEGIN CTAB
M  V30 COUNTS 15 15 0 0 0
M  V30 BEGIN ATOM
M  V30 1 P 1.1507 1.1507 0.2465 0
M  V30 2 O 1.2596 1.8554 -1.0601 0
M  V30 3 O 2.309 0.0862 0.513 0
M  V30 4 O 1.2365 2.1126 1.5162 0
M  V30 5 C -0.4239 0.3169 0.3073 0 CFG=2
M  V30 6 O -0.6043 -0.8412 1.1457 0
M  V30 7 C -0.5353 -1.0683 -0.2668 0 CFG=1
M  V30 8 C -1.8012 -1.548 -0.8792 0
M  V30 9 H 3.1971 0.4111 0.2846 0
M  V30 10 H 1.9445 2.7774 1.4543 0
M  V30 11 H -1.2743 0.9779 0.2088 0
M  V30 12 H 0.347 -1.5534 -0.6618 0
M  V30 13 H -1.8072 -1.3269 -1.9508 0
M  V30 14 H -1.894 -2.6311 -0.7538 0
M  V30 15 H -2.6812 -1.0766 -0.4292 0
M  V30 END ATOM
M  V30 BEGIN BOND
M  V30 1 2 1 2
M  V30 2 1 1 3
M  V30 3 1 1 4
M  V30 4 1 1 5
M  V30 5 1 5 6
M  V30 6 1 5 7
M  V30 7 1 7 8
M  V30 8 1 6 7
M  V30 9 1 3 9
M  V30 10 1 4 10
M  V30 11 1 5 11
M  V30 12 1 7 12
M  V30 13 1 8 13
M  V30 14 1 8 14
M  V30 15 1 8 15
M  V30 END BOND
M  V30 BEGIN COLLECTION
M  V30 MDLV30/STEABS ATOMS=(2 5 7)
M  V30 END COLLECTION
M  V30 END CTAB
M  END
>  <level_0>
3525

>  <index>
3525

>  <NO.>
3526

>  <Name>
chembl1616512

>  <SMILES>
C[C@@H]1O[C@H]1P(=O)(O)O

>  <logBB>


>  <Class>
1

>  <MW>
138.01

>  <nHBAcc>
2

>  <nHBDon>
2

>  <SLogP>
-0.09

>  <TopoPSA>
70.06

>  <MMFF94 Energy>
-102.68

$$$$
C[C@@H]1c2cccc(O)c2C(=O)C2=C(O)C3(O)C(=O)C(C(N)=O)=C(O)[C@@H](N(C)C)[C@H]3[C@@H](O)[C@H]21
Actelion Java MolfileCreator 2.0

  0  0  0  0  0  0              0 V3000
M  V30 BEGIN CTAB
M  V30 COUNTS 56 59 0 0 0
M  V30 BEGIN ATOM
M  V30 1 O 0.0 3.0632 1.8532 0
M  V30 2 C 0.6314 2.0705 1.5012 0
M  V30 3 C 2.0626 2.0931 1.0981 0
M  V30 4 C -0.0744 0.7672 1.4117 0
M  V30 5 C 2.6987 3.3163 0.8064 0
M  V30 6 C 2.7753 0.8897 0.9436 0
M  V30 7 C -1.3907 0.7656 1.1076 0
M  V30 8 C 0.7142 -0.4674 1.7636 0 CFG=2
M  V30 9 O 2.0303 4.5039 0.9228 0
M  V30 10 C 4.0201 3.3519 0.3575 0
M  V30 11 C 4.0976 0.9491 0.4536 0
M  V30 12 C 2.1796 -0.4788 1.2499 0 CFG=2
M  V30 13 O -2.1244 1.9251 0.9159 0
M  V30 14 C -2.1641 -0.5215 0.9774 0
M  V30 15 C -0.0665 -1.8025 1.5044 0 CFG=1
M  V30 16 C 4.7163 2.1651 0.1729 0
M  V30 17 C 3.0671 -1.2163 2.2795 0
M  V30 18 O -2.6697 -0.8019 2.3016 0
M  V30 19 C -3.4184 -0.42 0.0807 0
M  V30 20 C -1.2828 -1.6889 0.5567 0 CFG=2
M  V30 21 O 0.777 -2.8786 1.091 0
M  V30 22 O -4.4719 0.0519 0.5309 0
M  V30 23 C -3.3803 -0.9488 -1.3178 0
M  V30 24 C -0.9706 -1.6827 -0.9659 0 CFG=1
M  V30 25 C -2.2515 -1.5346 -1.7779 0
M  V30 26 C -4.562 -0.8582 -2.2308 0
M  V30 27 N 0.1228 -0.7723 -1.3829 0
M  V30 28 O -2.1397 -2.0862 -3.0523 0
M  V30 29 O -4.5358 -1.3096 -3.3746 0
M  V30 30 N -5.6776 -0.2541 -1.7552 0
M  V30 31 C 1.1042 -1.4882 -2.2122 0
M  V30 32 C -0.2746 0.4481 -2.0923 0
M  V30 33 H 0.7928 -0.4006 2.8621 0
M  V30 34 H 2.6326 5.2456 0.7571 0
M  V30 35 H 4.5115 4.2923 0.1268 0
M  V30 36 H 4.6612 0.0336 0.2809 0
M  V30 37 H 2.2247 -1.0384 0.3105 0
M  V30 38 H -1.5775 2.6869 1.2267 0
M  V30 39 H -0.4521 -2.1124 2.4865 0
M  V30 40 H 5.7388 2.1825 -0.1958 0
M  V30 41 H 3.207 -0.6106 3.1828 0
M  V30 42 H 4.0598 -1.4385 1.8753 0
M  V30 43 H 2.6328 -2.1718 2.5872 0
M  V30 44 H -3.32 -0.0888 2.4754 0
M  V30 45 H -1.858 -2.6153 0.7269 0
M  V30 46 H 0.2775 -3.7069 1.2013 0
M  V30 47 H -0.6367 -2.7151 -1.1546 0
M  V30 48 H -2.9825 -1.9479 -3.544 0
M  V30 49 H -5.7194 0.1215 -0.808 0
M  V30 50 H -6.4918 -0.1726 -2.3474 0
M  V30 51 H 0.6723 -1.8393 -3.1559 0
M  V30 52 H 1.5135 -2.3518 -1.6763 0
M  V30 53 H 1.9572 -0.8399 -2.4435 0
M  V30 54 H -0.6468 0.249 -3.1037 0
M  V30 55 H -1.0391 1.0129 -1.5542 0
M  V30 56 H 0.5874 1.1192 -2.1841 0
M  V30 END ATOM
M  V30 BEGIN BOND
M  V30 1 2 1 2
M  V30 2 1 2 3
M  V30 3 1 2 4
M  V30 4 2 3 5
M  V30 5 1 3 6
M  V30 6 2 4 7
M  V30 7 1 4 8
M  V30 8 1 5 9
M  V30 9 1 5 10
M  V30 10 2 6 11
M  V30 11 1 6 12
M  V30 12 1 7 13
M  V30 13 1 7 14
M  V30 14 1 8 15
M  V30 15 2 10 16
M  V30 16 1 12 17
M  V30 17 1 14 18
M  V30 18 1 14 19
M  V30 19 1 14 20
M  V30 20 1 15 21
M  V30 21 2 19 22
M  V30 22 1 19 23
M  V30 23 1 20 24
M  V30 24 2 23 25
M  V30 25 1 23 26
M  V30 26 1 24 27
M  V30 27 1 25 28
M  V30 28 2 26 29
M  V30 29 1 26 30
M  V30 30 1 27 31
M  V30 31 1 27 32
M  V30 32 1 8 12
M  V30 33 1 11 16
M  V30 34 1 15 20
M  V30 35 1 24 25
M  V30 36 1 8 33
M  V30 37 1 9 34
M  V30 38 1 10 35
M  V30 39 1 11 36
M  V30 40 1 12 37
M  V30 41 1 13 38
M  V30 42 1 15 39
M  V30 43 1 16 40
M  V30 44 1 17 41
M  V30 45 1 17 42
M  V30 46 1 17 43
M  V30 47 1 18 44
M  V30 48 1 20 45
M  V30 49 1 21 46
M  V30 50 1 24 47
M  V30 51 1 28 48
M  V30 52 1 30 49
M  V30 53 1 30 50
M  V30 54 1 31 51
M  V30 55 1 31 52
M  V30 56 1 31 53
M  V30 57 1 32 54
M  V30 58 1 32 55
M  V30 59 1 32 56
M  V30 END BOND
M  V30 BEGIN COLLECTION
M  V30 MDLV30/STEABS ATOMS=(5 8 12 15 20 24)
M  V30 END COLLECTION
M  V30 END CTAB
M  END
>  <level_0>
3531

>  <index>
3531

>  <NO.>
3532

>  <Name>


>  <SMILES>
C[C@@H]1c2cccc(O)c2C(=O)C2=C(O)C3(O)C(=O)C(C(N)=O)=C(O)[C@@H](N(C)C)[C@H]3[C@@H](O)[C@H]21

>  <logBB>


>  <Class>
-1

>  <MW>
444.15

>  <nHBAcc>
9

>  <nHBDon>
6

>  <SLogP>
-0.35

>  <TopoPSA>
181.62

>  <MMFF94 Energy>
102.73

$$$$
C[C@@H]1c2cccc(O)c2C(O)=C2C(=O)C3(O)C(=O)C(C(N)=O)=C(O)[C@@H](N(C)C)[C@H]3[C@@H](O)[C@H]21
Actelion Java MolfileCreator 2.0

  0  0  0  0  0  0              0 V3000
M  V30 BEGIN CTAB
M  V30 COUNTS 56 59 0 0 0
M  V30 BEGIN ATOM
M  V30 1 O -2.175 -1.7719 1.0467 0
M  V30 2 C -1.47 -0.9346 1.6173 0
M  V30 3 C -0.5046 -1.3659 2.6793 0
M  V30 4 C -1.6224 0.5634 1.3446 0
M  V30 5 C 0.3449 -0.4545 3.2097 0
M  V30 6 C -0.4869 -2.7657 3.2058 0
M  V30 7 O -2.4486 1.112 2.387 0
M  V30 8 C -2.3314 0.8363 0.0054 0
M  V30 9 C -0.2523 1.271 1.3707 0 CFG=1
M  V30 10 O 1.1702 -0.7448 4.2963 0
M  V30 11 C 0.4436 0.9954 2.7338 0 CFG=2
M  V30 12 O 0.2582 -3.1095 4.1222 0
M  V30 13 N -1.3309 -3.6607 2.6361 0
M  V30 14 O -3.4908 1.2386 -0.0642 0
M  V30 15 C -1.4904 0.6365 -1.1995 0
M  V30 16 C 0.5803 0.95 0.0942 0 CFG=2
M  V30 17 N 1.7721 1.6657 2.7424 0
M  V30 18 C -1.7929 -0.3048 -2.1001 0
M  V30 19 C -0.2049 1.4075 -1.1612 0 CFG=1
M  V30 20 O 0.8621 -0.4447 0.0337 0
M  V30 21 C 2.9201 0.7948 2.4797 0
M  V30 22 C 1.9969 2.3944 3.9955 0
M  V30 23 O -2.9918 -0.9789 -2.0924 0
M  V30 24 C -0.7654 -0.754 -3.0624 0
M  V30 25 C 0.5867 1.3315 -2.4948 0 CFG=1
M  V30 26 C -0.8655 -1.9706 -3.7604 0
M  V30 27 C 0.397 0.0243 -3.2458 0
M  V30 28 C 0.1762 2.488 -3.4234 0
M  V30 29 O -1.892 -2.8541 -3.548 0
M  V30 30 C 0.1047 -2.3693 -4.676 0
M  V30 31 C 1.3816 -0.3917 -4.1606 0
M  V30 32 C 1.2289 -1.5761 -4.8791 0
M  V30 33 H -3.3755 0.9713 2.096 0
M  V30 34 H -0.4418 2.3568 1.3498 0
M  V30 35 H 1.067 -1.6929 4.5413 0
M  V30 36 H -0.1775 1.5376 3.4645 0
M  V30 37 H -1.9486 -3.3979 1.8692 0
M  V30 38 H -1.3425 -4.614 2.9691 0
M  V30 39 H 1.5313 1.4921 0.1213 0
M  V30 40 H -0.4495 2.4679 -0.9992 0
M  V30 41 H 1.467 -0.6077 -0.7139 0
M  V30 42 H 3.2002 0.173 3.336 0
M  V30 43 H 2.7613 0.1383 1.6215 0
M  V30 44 H 3.7925 1.4114 2.2328 0
M  V30 45 H 2.0119 1.7343 4.8692 0
M  V30 46 H 1.2197 3.1524 4.1459 0
M  V30 47 H 2.9487 2.9367 3.9594 0
M  V30 48 H -3.2907 -1.0331 -3.0227 0
M  V30 49 H 1.6539 1.4548 -2.2671 0
M  V30 50 H 0.3521 3.4548 -2.9394 0
M  V30 51 H -0.8842 2.4328 -3.6947 0
M  V30 52 H 0.7563 2.4784 -4.3529 0
M  V30 53 H -2.2062 -2.7124 -2.6306 0
M  V30 54 H -0.0066 -3.3087 -5.2107 0
M  V30 55 H 2.2713 0.2132 -4.3259 0
M  V30 56 H 1.9916 -1.8878 -5.5882 0
M  V30 END ATOM
M  V30 BEGIN BOND
M  V30 1 2 1 2
M  V30 2 1 2 3
M  V30 3 1 2 4
M  V30 4 2 3 5
M  V30 5 1 3 6
M  V30 6 1 4 7
M  V30 7 1 4 8
M  V30 8 1 4 9
M  V30 9 1 5 10
M  V30 10 1 5 11
M  V30 11 2 6 12
M  V30 12 1 6 13
M  V30 13 2 8 14
M  V30 14 1 8 15
M  V30 15 1 9 16
M  V30 16 1 11 17
M  V30 17 2 15 18
M  V30 18 1 15 19
M  V30 19 1 16 20
M  V30 20 1 17 21
M  V30 21 1 17 22
M  V30 22 1 18 23
M  V30 23 1 18 24
M  V30 24 1 19 25
M  V30 25 2 24 26
M  V30 26 1 24 27
M  V30 27 1 25 28
M  V30 28 1 26 29
M  V30 29 1 26 30
M  V30 30 2 27 31
M  V30 31 2 30 32
M  V30 32 1 9 11
M  V30 33 1 16 19
M  V30 34 1 25 27
M  V30 35 1 31 32
M  V30 36 1 7 33
M  V30 37 1 9 34
M  V30 38 1 10 35
M  V30 39 1 11 36
M  V30 40 1 13 37
M  V30 41 1 13 38
M  V30 42 1 16 39
M  V30 43 1 19 40
M  V30 44 1 20 41
M  V30 45 1 21 42
M  V30 46 1 21 43
M  V30 47 1 21 44
M  V30 48 1 22 45
M  V30 49 1 22 46
M  V30 50 1 22 47
M  V30 51 1 23 48
M  V30 52 1 25 49
M  V30 53 1 28 50
M  V30 54 1 28 51
M  V30 55 1 28 52
M  V30 56 1 29 53
M  V30 57 1 30 54
M  V30 58 1 31 55
M  V30 59 1 32 56
M  V30 END BOND
M  V30 BEGIN COLLECTION
M  V30 MDLV30/STEABS ATOMS=(5 9 11 16 19 25)
M  V30 END COLLECTION
M  V30 END CTAB
M  END
>  <level_0>
3532

>  <index>
3532

>  <NO.>
3533

>  <Name>


>  <SMILES>
C[C@@H]1c2cccc(O)c2C(O)=C2C(=O)C3(O)C(=O)C(C(N)=O)=C(O)[C@@H](N(C)C)[C@H]3[C@@H](O)[C@H]21

>  <logBB>


>  <Class>
-1

>  <MW>
444.15

>  <nHBAcc>
9

>  <nHBDon>
6

>  <SLogP>
-0.5

>  <TopoPSA>
181.62

>  <MMFF94 Energy>
71.512

$$$$
C[C@H]1/C=C/C=C/C=C/C=C/C=C/C=C/C=C/[C@@H](O[C@H]2O[C@@H](C)[C@@H](O)[C@H](N)[C@@H]2O)C[C@@H]2OC(O)(C[C@H](O)[C@@H](O)CC[C@H](O)C[C@H](O)C[C@H](O)CC(=O)O[C@@H](C)[C@@H](C)[C@H]1O)C[C@H](O)[C@@H]2C(=O)O
Actelion Java MolfileCreator 2.0

  0  0  0  0  0  0              0 V3000
M  V30 BEGIN CTAB
M  V30 COUNTS 138 140 0 0 0
M  V30 BEGIN ATOM
M  V30 1 O 0.0 0.4734 3.3176 0
M  V30 2 C -0.358 1.2381 4.2124 0
M  V30 3 O -1.401 0.9058 5.0041 0
M  V30 4 C 0.3968 2.5076 4.5348 0
M  V30 5 C -2.1503 1.8244 5.836 0 CFG=2
M  V30 6 C 1.3593 2.9197 3.4099 0 CFG=1
M  V30 7 C -2.8442 1.0056 6.9633 0 CFG=2
M  V30 8 C -3.0882 2.6271 4.9356 0
M  V30 9 O 2.2724 1.8702 3.1029 0
M  V30 10 C 0.6245 3.411 2.1569 0
M  V30 11 C -3.8953 -0.0561 6.5242 0 CFG=1
M  V30 12 C -3.4676 1.9573 7.9993 0
M  V30 13 C 1.506 3.6086 0.9197 0 CFG=1
M  V30 14 O -4.9851 0.6214 5.887 0
M  V30 15 C -3.3696 -1.2187 5.6298 0 CFG=2
M  V30 16 O 0.6875 4.1928 -0.098 0
M  V30 17 C 2.7367 4.4887 1.1501 0
M  V30 18 C -4.4663 -2.241 5.3568 0
M  V30 19 C -2.1918 -1.9618 6.2683 0
M  V30 20 C 3.4991 4.8731 -0.1292 0 CFG=1
M  V30 21 C -4.7354 -2.8708 4.1996 0
M  V30 22 O 4.7612 5.4411 0.2343 0
M  V30 23 C 3.7221 3.752 -1.1518 0
M  V30 24 C -3.9999 -2.7256 2.9617 0
M  V30 25 C 4.5236 2.5449 -0.6415 0
M  V30 26 C -4.2025 -3.3787 1.8053 0
M  V30 27 C 4.3279 1.3356 -1.573 0 CFG=2
M  V30 28 C -5.2161 -4.3702 1.5101 0
M  V30 29 O 2.9954 0.8507 -1.3465 0
M  V30 30 C 5.364 0.2187 -1.2861 0 CFG=1
M  V30 31 C -5.3347 -5.0639 0.3653 0
M  V30 32 O 5.0853 -0.4041 -0.0347 0
M  V30 33 C 5.4774 -0.8113 -2.4237 0
M  V30 34 C -4.4899 -4.9826 -0.8064 0
M  V30 35 C 4.5816 -2.0646 -2.3853 0
M  V30 36 C -4.3715 -3.9574 -1.6656 0
M  V30 37 O 3.2748 -1.6869 -1.977 0
M  V30 38 O 4.5485 -2.5127 -3.7404 0
M  V30 39 C 5.1718 -3.1481 -1.4645 0
M  V30 40 C -5.1015 -2.7069 -1.6184 0
M  V30 41 C 2.2656 -2.7078 -1.9236 0 CFG=2
M  V30 42 C 4.0867 -3.9607 -0.7554 0 CFG=1
M  V30 43 C -4.9473 -1.6664 -2.4536 0
M  V30 44 C 2.7996 -4.1073 -1.567 0 CFG=2
M  V30 45 C 1.3328 -2.6343 -3.1523 0
M  V30 46 O 4.5884 -5.2297 -0.3346 0
M  V30 47 C -4.0095 -1.5519 -3.549 0
M  V30 48 C 3.0054 -5.0126 -2.7571 0
M  V30 49 C 0.4666 -1.3537 -3.2755 0 CFG=2
M  V30 50 C -2.6726 -1.4423 -3.4721 0
M  V30 51 O 4.033 -5.125 -3.409 0
M  V30 52 O 1.9141 -5.7341 -3.0722 0
M  V30 53 O 1.3217 -0.2148 -3.2135 0
M  V30 54 C -0.5528 -1.3026 -2.1644 0
M  V30 55 C -1.8924 -1.3701 -2.2552 0
M  V30 56 C 0.8692 0.9703 -3.8891 0 CFG=1
M  V30 57 O 0.3578 0.6949 -5.1894 0
M  V30 58 C -0.1239 1.773 -3.0186 0 CFG=1
M  V30 59 C 0.0395 1.8958 -5.9104 0 CFG=2
M  V30 60 O 0.4173 2.0893 -1.7189 0
M  V30 61 C -0.5504 3.0743 -3.7312 0 CFG=2
M  V30 62 C -1.0129 2.7515 -5.1669 0 CFG=2
M  V30 63 C -0.4493 1.468 -7.2903 0
M  V30 64 N 0.5287 4.0847 -3.7168 0
M  V30 65 O -2.2691 2.0605 -5.1162 0
M  V30 66 H 0.9707 2.3073 5.4468 0
M  V30 67 H -0.2872 3.3396 4.7119 0
M  V30 68 H -1.4498 2.508 6.3286 0
M  V30 69 H 1.9674 3.7481 3.7922 0
M  V30 70 H -2.0479 0.4649 7.4912 0
M  V30 71 H -3.76 3.2721 5.507 0
M  V30 72 H -3.6763 1.9733 4.2842 0
M  V30 73 H -2.515 3.2687 4.258 0
M  V30 74 H 1.7414 1.0893 2.8335 0
M  V30 75 H 0.0942 4.3442 2.3895 0
M  V30 76 H -0.1642 2.7012 1.876 0
M  V30 77 H -4.3126 -0.5005 7.4383 0
M  V30 78 H -3.8289 1.3951 8.8675 0
M  V30 79 H -2.7262 2.6776 8.3616 0
M  V30 80 H -4.3141 2.518 7.5919 0
M  V30 81 H 1.8318 2.6245 0.5662 0
M  V30 82 H -5.5524 -0.0474 5.4645 0
M  V30 83 H -3.058 -0.7891 4.675 0
M  V30 84 H 0.3389 3.4339 -0.6205 0
M  V30 85 H 2.4344 5.4227 1.643 0
M  V30 86 H 3.4228 4.001 1.8527 0
M  V30 87 H -5.0846 -2.5036 6.2161 0
M  V30 88 H -1.3111 -1.3218 6.3687 0
M  V30 89 H -1.8891 -2.8205 5.6578 0
M  V30 90 H -2.451 -2.3357 7.2655 0
M  V30 91 H 2.9415 5.6714 -0.6337 0
M  V30 92 H -5.5587 -3.5814 4.2048 0
M  V30 93 H 5.2379 4.7845 0.7704 0
M  V30 94 H 2.7552 3.4258 -1.5432 0
M  V30 95 H 4.268 4.1689 -2.0088 0
M  V30 96 H -3.1645 -2.0273 2.9675 0
M  V30 97 H 5.5829 2.8225 -0.5936 0
M  V30 98 H 4.2049 2.276 0.3711 0
M  V30 99 H -3.514 -3.1445 0.9938 0
M  V30 100 H 4.4048 1.6644 -2.6158 0
M  V30 101 H -5.9356 -4.5925 2.2936 0
M  V30 102 H 2.8822 0.0497 -1.914 0
M  V30 103 H 6.3497 0.6915 -1.196 0
M  V30 104 H -6.1136 -5.823 0.3035 0
M  V30 105 H 4.1173 -0.3236 0.0921 0
M  V30 106 H 6.5211 -1.1552 -2.4711 0
M  V30 107 H 5.3338 -0.2841 -3.3775 0
M  V30 108 H -3.9183 -5.8876 -1.009 0
M  V30 109 H -3.6807 -4.0845 -2.4975 0
M  V30 110 H 4.6436 -3.4836 -3.7696 0
M  V30 111 H 5.856 -3.7996 -2.0226 0
M  V30 112 H 5.8001 -2.7076 -0.6808 0
M  V30 113 H -5.8666 -2.619 -0.8487 0
M  V30 114 H 1.6689 -2.4175 -1.0513 0
M  V30 115 H 3.8278 -3.4295 0.1702 0
M  V30 116 H -5.6132 -0.8123 -2.3392 0
M  V30 117 H 2.0615 -4.6264 -0.9385 0
M  V30 118 H 0.6553 -3.4964 -3.1573 0
M  V30 119 H 1.9508 -2.6917 -4.0567 0
M  V30 120 H 5.0896 -5.6272 -1.0701 0
M  V30 121 H -4.4709 -1.5112 -4.535 0
M  V30 122 H -0.011 -1.4128 -4.2568 0
M  V30 123 H -2.1389 -1.3436 -4.4152 0
M  V30 124 H 2.1748 -6.2805 -3.8437 0
M  V30 125 H -0.1449 -1.1856 -1.1615 0
M  V30 126 H -2.4556 -1.3251 -1.3231 0
M  V30 127 H 1.7847 1.5639 -4.0049 0
M  V30 128 H -1.029 1.1895 -2.8418 0
M  V30 129 H 0.9641 2.4728 -6.0395 0
M  V30 130 H 1.1661 1.463 -1.5756 0
M  V30 131 H -1.385 3.5009 -3.1595 0
M  V30 132 H -1.1892 3.678 -5.7273 0
M  V30 133 H 0.3351 0.9085 -7.8118 0
M  V30 134 H -0.7227 2.3334 -7.9014 0
M  V30 135 H -1.3117 0.7964 -7.2191 0
M  V30 136 H 0.1368 5.0051 -3.9193 0
M  V30 137 H 0.8692 4.1542 -2.7497 0
M  V30 138 H -2.9213 2.6585 -4.7117 0
M  V30 END ATOM
M  V30 BEGIN BOND
M  V30 1 2 1 2
M  V30 2 1 2 3
M  V30 3 1 2 4
M  V30 4 1 3 5
M  V30 5 1 4 6
M  V30 6 1 5 7
M  V30 7 1 5 8
M  V30 8 1 6 9
M  V30 9 1 6 10
M  V30 10 1 7 11
M  V30 11 1 7 12
M  V30 12 1 10 13
M  V30 13 1 11 14
M  V30 14 1 11 15
M  V30 15 1 13 16
M  V30 16 1 13 17
M  V30 17 1 15 18
M  V30 18 1 15 19
M  V30 19 1 17 20
M  V30 20 2 18 21
M  V30 21 1 20 22
M  V30 22 1 20 23
M  V30 23 1 21 24
M  V30 24 1 23 25
M  V30 25 2 24 26
M  V30 26 1 25 27
M  V30 27 1 26 28
M  V30 28 1 27 29
M  V30 29 1 27 30
M  V30 30 2 28 31
M  V30 31 1 30 32
M  V30 32 1 30 33
M  V30 33 1 31 34
M  V30 34 1 33 35
M  V30 35 2 34 36
M  V30 36 1 35 37
M  V30 37 1 35 38
M  V30 38 1 35 39
M  V30 39 1 36 40
M  V30 40 1 37 41
M  V30 41 1 39 42
M  V30 42 2 40 43
M  V30 43 1 41 44
M  V30 44 1 41 45
M  V30 45 1 42 46
M  V30 46 1 43 47
M  V30 47 1 44 48
M  V30 48 1 45 49
M  V30 49 2 47 50
M  V30 50 2 48 51
M  V30 51 1 48 52
M  V30 52 1 49 53
M  V30 53 1 49 54
M  V30 54 1 50 55
M  V30 55 1 53 56
M  V30 56 1 56 57
M  V30 57 1 56 58
M  V30 58 1 57 59
M  V30 59 1 58 60
M  V30 60 1 58 61
M  V30 61 1 59 62
M  V30 62 1 59 63
M  V30 63 1 61 64
M  V30 64 1 62 65
M  V30 65 1 42 44
M  V30 66 2 54 55
M  V30 67 1 61 62
M  V30 68 1 4 66
M  V30 69 1 4 67
M  V30 70 1 5 68
M  V30 71 1 6 69
M  V30 72 1 7 70
M  V30 73 1 8 71
M  V30 74 1 8 72
M  V30 75 1 8 73
M  V30 76 1 9 74
M  V30 77 1 10 75
M  V30 78 1 10 76
M  V30 79 1 11 77
M  V30 80 1 12 78
M  V30 81 1 12 79
M  V30 82 1 12 80
M  V30 83 1 13 81
M  V30 84 1 14 82
M  V30 85 1 15 83
M  V30 86 1 16 84
M  V30 87 1 17 85
M  V30 88 1 17 86
M  V30 89 1 18 87
M  V30 90 1 19 88
M  V30 91 1 19 89
M  V30 92 1 19 90
M  V30 93 1 20 91
M  V30 94 1 21 92
M  V30 95 1 22 93
M  V30 96 1 23 94
M  V30 97 1 23 95
M  V30 98 1 24 96
M  V30 99 1 25 97
M  V30 100 1 25 98
M  V30 101 1 26 99
M  V30 102 1 27 100
M  V30 103 1 28 101
M  V30 104 1 29 102
M  V30 105 1 30 103
M  V30 106 1 31 104
M  V30 107 1 32 105
M  V30 108 1 33 106
M  V30 109 1 33 107
M  V30 110 1 34 108
M  V30 111 1 36 109
M  V30 112 1 38 110
M  V30 113 1 39 111
M  V30 114 1 39 112
M  V30 115 1 40 113
M  V30 116 1 41 114
M  V30 117 1 42 115
M  V30 118 1 43 116
M  V30 119 1 44 117
M  V30 120 1 45 118
M  V30 121 1 45 119
M  V30 122 1 46 120
M  V30 123 1 47 121
M  V30 124 1 49 122
M  V30 125 1 50 123
M  V30 126 1 52 124
M  V30 127 1 54 125
M  V30 128 1 55 126
M  V30 129 1 56 127
M  V30 130 1 58 128
M  V30 131 1 59 129
M  V30 132 1 60 130
M  V30 133 1 61 131
M  V30 134 1 62 132
M  V30 135 1 63 133
M  V30 136 1 63 134
M  V30 137 1 63 135
M  V30 138 1 64 136
M  V30 139 1 64 137
M  V30 140 1 65 138
M  V30 END BOND
M  V30 BEGIN COLLECTION
M  V30 MDLV30/STEABS ATOMS=(18 5 6 7 11 13 15 20 27 30 41 42 44 49 56 58 59 61 62)
M  V30 END COLLECTION
M  V30 END CTAB
M  END
>  <level_0>
3553

>  <index>
3553

>  <NO.>
3554

>  <Name>


>  <SMILES>
C[C@H]1/C=C/C=C/C=C/C=C/C=C/C=C/C=C/[C@@H](O[C@H]2O[C@@H](C)[C@@H](O)[C@H](N)[C@@H]2O)C[C@@H]2OC(O)(C[C@H](O)[C@@H](O)CC[C@H](O)C[C@H](O)C[C@H](O)CC(=O)O[C@@H](C)[C@@H](C)[C@H]1O)C[C@H](O)[C@@H]2C(=O)O

>  <logBB>


>  <Class>
-1

>  <MW>
923.49

>  <nHBAcc>
17

>  <nHBDon>
12

>  <SLogP>
0.71

>  <TopoPSA>
319.61

>  <MMFF94 Energy>
152.01

$$$$
Clc1ccc(CO[C@H](Cn2ccnc2)c2ccc(Cl)cc2Cl)c(Cl)c1
Actelion Java MolfileCreator 2.0

  0  0  0  0  0  0              0 V3000
M  V30 BEGIN CTAB
M  V30 COUNTS 39 41 0 0 0
M  V30 BEGIN ATOM
M  V30 1 Cl -4.1699 0.0832 0.6663 0
M  V30 2 C -3.0882 -1.2311 0.9657 0
M  V30 3 C -1.6913 -1.0603 0.9435 0
M  V30 4 C -3.6562 -2.4766 1.2493 0
M  V30 5 C -0.8831 -2.1753 1.2392 0
M  V30 6 C -1.053 0.2922 0.6514 0 CFG=2
M  V30 7 C -2.8338 -3.5647 1.5231 0
M  V30 8 C -1.4504 -3.4197 1.5221 0
M  V30 9 O 0.2548 0.1069 0.0776 0
M  V30 10 C -0.891 1.0839 1.9592 0
M  V30 11 Cl -3.5316 -5.0971 1.8736 0
M  V30 12 C 0.2179 0.014 -1.3506 0
M  V30 13 N -0.6383 2.4915 1.7053 0
M  V30 14 C 1.5908 -0.2736 -1.9181 0
M  V30 15 C -1.5892 3.4652 1.5969 0
M  V30 16 C 0.5828 3.0814 1.5424 0
M  V30 17 C 1.7561 -0.5648 -3.2848 0
M  V30 18 C 2.7392 -0.2289 -1.1076 0
M  V30 19 N -1.046 4.6375 1.3594 0
M  V30 20 C 0.3059 4.4109 1.3253 0
M  V30 21 Cl 0.4078 -0.6159 -4.3668 0
M  V30 22 C 3.0219 -0.8198 -3.82 0
M  V30 23 C 4.0053 -0.4832 -1.6407 0
M  V30 24 C 4.1398 -0.7793 -2.9934 0
M  V30 25 Cl 5.6994 -1.0929 -3.6479 0
M  V30 26 H -4.7366 -2.5972 1.2602 0
M  V30 27 H 0.2026 -2.0834 1.246 0
M  V30 28 H -1.664 0.8619 -0.0592 0
M  V30 29 H -0.8067 -4.2687 1.7401 0
M  V30 30 H -1.7909 1.0353 2.5839 0
M  V30 31 H -0.0487 0.7086 2.5534 0
M  V30 32 H -0.1399 0.9676 -1.7558 0
M  V30 33 H -0.467 -0.7938 -1.6309 0
M  V30 34 H -2.6503 3.2727 1.6942 0
M  V30 35 H 1.5116 2.5299 1.5825 0
M  V30 36 H 2.6586 0.0078 -0.0481 0
M  V30 37 H 1.0065 5.2162 1.1458 0
M  V30 38 H 3.1348 -1.0458 -4.877 0
M  V30 39 H 4.8791 -0.4452 -0.9949 0
M  V30 END ATOM
M  V30 BEGIN BOND
M  V30 1 1 1 2
M  V30 2 2 2 3
M  V30 3 1 2 4
M  V30 4 1 3 5
M  V30 5 1 3 6
M  V30 6 2 4 7
M  V30 7 2 5 8
M  V30 8 1 6 9
M  V30 9 1 6 10
M  V30 10 1 7 11
M  V30 11 1 9 12
M  V30 12 1 10 13
M  V30 13 1 12 14
M  V30 14 1 13 15
M  V30 15 1 13 16
M  V30 16 2 14 17
M  V30 17 1 14 18
M  V30 18 2 15 19
M  V30 19 2 16 20
M  V30 20 1 17 21
M  V30 21 1 17 22
M  V30 22 2 18 23
M  V30 23 2 22 24
M  V30 24 1 24 25
M  V30 25 1 7 8
M  V30 26 1 19 20
M  V30 27 1 23 24
M  V30 28 1 4 26
M  V30 29 1 5 27
M  V30 30 1 6 28
M  V30 31 1 8 29
M  V30 32 1 10 30
M  V30 33 1 10 31
M  V30 34 1 12 32
M  V30 35 1 12 33
M  V30 36 1 15 34
M  V30 37 1 16 35
M  V30 38 1 18 36
M  V30 39 1 20 37
M  V30 40 1 22 38
M  V30 41 1 23 39
M  V30 END BOND
M  V30 BEGIN COLLECTION
M  V30 MDLV30/STEABS ATOMS=(1 6)
M  V30 END COLLECTION
M  V30 END CTAB
M  END
>  <level_0>
3639

>  <index>
3639

>  <NO.>
3640

>  <Name>
(s)-miconazole

>  <SMILES>
Clc1ccc(CO[C@H](Cn2ccnc2)c2ccc(Cl)cc2Cl)c(Cl)c1

>  <logBB>


>  <Class>
1

>  <MW>
413.99

>  <nHBAcc>
2

>  <nHBDon>
0

>  <SLogP>
6.45

>  <TopoPSA>
27.05

>  <MMFF94 Energy>
34.138

$$$$
Cn1nnnc1SCC1=C(C(=O)O)N2C(=O)C(NC(=O)[C@@H](O)c3ccccc3)[C@@H]2SC1
Actelion Java MolfileCreator 2.0

  0  0  0  0  0  0              0 V3000
M  V30 BEGIN CTAB
M  V30 COUNTS 49 52 0 0 0
M  V30 BEGIN ATOM
M  V30 1 S -0.5773 1.0723 2.3933 0
M  V30 2 C -0.9217 -0.0083 0.9802 0 CFG=2
M  V30 3 C 1.0138 1.6344 1.7073 0
M  V30 4 N -1.0149 0.8388 -0.1863 0
M  V30 5 C -2.4226 -0.3687 0.7362 0
M  V30 6 C 0.9343 2.0887 0.2578 0
M  V30 7 C -0.0514 1.7049 -0.5891 0
M  V30 8 C -2.2395 0.4536 -0.5898 0
M  V30 9 N -2.7564 -1.798 0.5139 0
M  V30 10 C 2.0813 2.9868 -0.1565 0
M  V30 11 C -0.1413 2.245 -1.9742 0
M  V30 12 O -2.9099 0.708 -1.5621 0
M  V30 13 C -2.2713 -2.8286 1.2924 0
M  V30 14 S 1.7394 4.7025 0.3361 0
M  V30 15 O -0.0558 3.4114 -2.3112 0
M  V30 16 O -0.2693 1.2498 -2.8705 0
M  V30 17 O -1.4933 -2.6436 2.2233 0
M  V30 18 C -2.7953 -4.2199 0.8616 0 CFG=1
M  V30 19 C 3.1027 5.4898 -0.3658 0
M  V30 20 O -3.6646 -4.1177 -0.2747 0
M  V30 21 C -1.6713 -5.1882 0.5495 0
M  V30 22 N 4.2506 4.9465 -0.6984 0
M  V30 23 N 3.1465 6.8194 -0.663 0
M  V30 24 C -1.6259 -6.4407 1.1795 0
M  V30 25 C -0.6834 -4.8719 -0.3984 0
M  V30 26 N 5.014 5.9713 -1.2083 0
M  V30 27 N 4.3476 7.1192 -1.1897 0
M  V30 28 C 2.1402 7.8306 -0.5029 0
M  V30 29 C -0.6105 -7.3498 0.8779 0
M  V30 30 C 0.3302 -5.7833 -0.6976 0
M  V30 31 C 0.3664 -7.0208 -0.0591 0
M  V30 32 H -0.2093 -0.8293 0.8388 0
M  V30 33 H 1.749 0.8272 1.7971 0
M  V30 34 H 1.3472 2.456 2.349 0
M  V30 35 H -3.1463 0.0946 1.4172 0
M  V30 36 H -3.4165 -2.0736 -0.2139 0
M  V30 37 H 3.0059 2.6441 0.3229 0
M  V30 38 H 2.2622 2.9402 -1.2353 0
M  V30 39 H -0.3934 1.7108 -3.7254 0
M  V30 40 H -3.4049 -4.5899 1.694 0
M  V30 41 H -3.3207 -4.7164 -0.9619 0
M  V30 42 H -2.3794 -6.7187 1.9141 0
M  V30 43 H -0.6925 -3.9115 -0.9101 0
M  V30 44 H 2.5232 8.7892 -0.8629 0
M  V30 45 H 1.2608 7.5467 -1.0861 0
M  V30 46 H 1.8905 7.9125 0.5578 0
M  V30 47 H -0.5805 -8.3154 1.3765 0
M  V30 48 H 1.0942 -5.5275 -1.4275 0
M  V30 49 H 1.1579 -7.7292 -0.2902 0
M  V30 END ATOM
M  V30 BEGIN BOND
M  V30 1 1 1 2
M  V30 2 1 1 3
M  V30 3 1 2 4
M  V30 4 1 2 5
M  V30 5 1 3 6
M  V30 6 1 4 7
M  V30 7 1 4 8
M  V30 8 1 5 9
M  V30 9 1 6 10
M  V30 10 1 7 11
M  V30 11 2 8 12
M  V30 12 1 9 13
M  V30 13 1 10 14
M  V30 14 2 11 15
M  V30 15 1 11 16
M  V30 16 2 13 17
M  V30 17 1 13 18
M  V30 18 1 14 19
M  V30 19 1 18 20
M  V30 20 1 18 21
M  V30 21 2 19 22
M  V30 22 1 19 23
M  V30 23 2 21 24
M  V30 24 1 21 25
M  V30 25 1 22 26
M  V30 26 1 23 27
M  V30 27 1 23 28
M  V30 28 1 24 29
M  V30 29 2 25 30
M  V30 30 2 29 31
M  V30 31 1 5 8
M  V30 32 2 6 7
M  V30 33 2 26 27
M  V30 34 1 30 31
M  V30 35 1 2 32
M  V30 36 1 3 33
M  V30 37 1 3 34
M  V30 38 1 5 35
M  V30 39 1 9 36
M  V30 40 1 10 37
M  V30 41 1 10 38
M  V30 42 1 16 39
M  V30 43 1 18 40
M  V30 44 1 20 41
M  V30 45 1 24 42
M  V30 46 1 25 43
M  V30 47 1 28 44
M  V30 48 1 28 45
M  V30 49 1 28 46
M  V30 50 1 29 47
M  V30 51 1 30 48
M  V30 52 1 31 49
M  V30 END BOND
M  V30 BEGIN COLLECTION
M  V30 MDLV30/STEABS ATOMS=(2 2 18)
M  V30 END COLLECTION
M  V30 END CTAB
M  END
>  <level_0>
3649

>  <index>
3649

>  <NO.>
3650

>  <Name>


>  <SMILES>
Cn1nnnc1SCC1=C(C(=O)O)N2C(=O)C(NC(=O)[C@@H](O)c3ccccc3)[C@@H]2SC1

>  <logBB>


>  <Class>
-1

>  <MW>
462.08

>  <nHBAcc>
9

>  <nHBDon>
3

>  <SLogP>
-0.23

>  <TopoPSA>
150.54

>  <MMFF94 Energy>
48.591

$$$$
NCC[C@H](O)C(=O)N[C@H]1C[C@H](N)[C@H](O[C@@H]2O[C@@H](CN)[C@@H](O)[C@H](O)[C@@H]2O)[C@H](O)[C@H]1O[C@H]1O[C@@H](CO)[C@@H](O)[C@H](N)[C@@H]1O
Actelion Java MolfileCreator 2.0

  0  0  0  0  0  0              0 V3000
M  V30 BEGIN CTAB
M  V30 COUNTS 83 85 0 0 0
M  V30 BEGIN ATOM
M  V30 1 O -4.3629 0.9506 -0.7921 0
M  V30 2 C -3.4348 1.6086 -1.247 0
M  V30 3 N -2.1234 1.4493 -0.8682 0
M  V30 4 C -3.6065 2.7307 -2.29 0 CFG=1
M  V30 5 C -1.6662 0.4903 0.1348 0 CFG=2
M  V30 6 O -2.4631 2.8388 -3.1457 0
M  V30 7 C -4.9015 2.6109 -3.0981 0
M  V30 8 C -0.2563 0.8916 0.6327 0 CFG=2
M  V30 9 C -1.6702 -0.9376 -0.4347 0
M  V30 10 C -4.9841 1.3426 -3.9498 0
M  V30 11 O 0.6289 0.9283 -0.5028 0
M  V30 12 C 0.299 -0.1287 1.6396 0 CFG=1
M  V30 13 C -1.1094 -1.9618 0.5571 0 CFG=1
M  V30 14 N -6.242 1.3137 -4.6906 0
M  V30 15 C 1.2453 2.1957 -0.7593 0 CFG=1
M  V30 16 O -0.4471 -0.0885 2.8671 0
M  V30 17 C 0.3054 -1.5562 1.0426 0 CFG=2
M  V30 18 N -2.027 -2.1183 1.7092 0
M  V30 19 O 0.2397 3.1531 -1.1061 0
M  V30 20 C 2.1771 2.666 0.3847 0 CFG=1
M  V30 21 O 0.6984 -2.5058 2.0498 0
M  V30 22 C 0.8067 4.4181 -1.4978 0 CFG=2
M  V30 23 O 3.2642 1.7388 0.5675 0
M  V30 24 C 2.7519 4.072 0.1019 0 CFG=2
M  V30 25 C 2.1142 -2.6453 2.1777 0 CFG=2
M  V30 26 C 1.6276 5.0297 -0.3439 0 CFG=2
M  V30 27 C -0.3398 5.3419 -1.9246 0
M  V30 28 N 3.895 3.9821 -0.84 0
M  V30 29 O 2.6449 -3.4839 1.1604 0
M  V30 30 C 2.4292 -3.1702 3.592 0 CFG=1
M  V30 31 O 0.8024 5.2879 0.7971 0
M  V30 32 O -0.7963 4.9895 -3.2274 0
M  V30 33 C 2.1653 -4.8417 1.2397 0 CFG=2
M  V30 34 O 1.7538 -2.3965 4.6036 0
M  V30 35 C 2.0399 -4.6441 3.7624 0 CFG=2
M  V30 36 C 2.5411 -5.493 2.5891 0 CFG=2
M  V30 37 C 2.7566 -5.5834 0.0225 0
M  V30 38 O 0.6217 -4.7875 3.9124 0
M  V30 39 O 3.9645 -5.6485 2.6912 0
M  V30 40 N 2.3154 -6.9738 -0.1194 0
M  V30 41 H -1.4205 2.0575 -1.2914 0
M  V30 42 H -3.6466 3.6665 -1.7192 0
M  V30 43 H -2.3747 0.5455 0.9707 0
M  V30 44 H -2.364 1.9786 -3.5947 0
M  V30 45 H -5.7589 2.6482 -2.4139 0
M  V30 46 H -4.9772 3.4822 -3.7618 0
M  V30 47 H -0.3439 1.8754 1.1101 0
M  V30 48 H -1.0745 -0.97 -1.3567 0
M  V30 49 H -2.6875 -1.2233 -0.7313 0
M  V30 50 H -4.918 0.4448 -3.3278 0
M  V30 51 H -4.1596 1.3106 -4.6689 0
M  V30 52 H 1.323 0.1496 1.9059 0
M  V30 53 H -1.0444 -2.9416 0.0684 0
M  V30 54 H -6.3084 0.4389 -5.2102 0
M  V30 55 H -7.0224 1.3052 -4.0328 0
M  V30 56 H 1.855 2.0171 -1.6535 0
M  V30 57 H -1.2042 -0.708 2.748 0
M  V30 58 H 0.9918 -1.6135 0.1877 0
M  V30 59 H -1.6401 -2.8741 2.289 0
M  V30 60 H -2.9229 -2.477 1.3699 0
M  V30 61 H 1.6356 2.6987 1.335 0
M  V30 62 H 1.4477 4.2406 -2.3704 0
M  V30 63 H 4.0161 2.136 0.0781 0
M  V30 64 H 3.1777 4.4354 1.0465 0
M  V30 65 H 2.5855 -1.6612 2.0799 0
M  V30 66 H 2.0644 5.9876 -0.6512 0
M  V30 67 H 1.0E-4 6.3805 -1.981 0
M  V30 68 H -1.1911 5.2845 -1.2383 0
M  V30 69 H 4.3926 4.8758 -0.8456 0
M  V30 70 H 3.5811 3.8359 -1.7997 0
M  V30 71 H 3.5085 -3.0794 3.763 0
M  V30 72 H 0.2325 6.0538 0.6085 0
M  V30 73 H -1.3318 4.1689 -3.1403 0
M  V30 74 H 1.0727 -4.8275 1.1306 0
M  V30 75 H 1.0602 -1.8775 4.1425 0
M  V30 76 H 2.4768 -5.0089 4.7001 0
M  V30 77 H 2.0955 -6.4932 2.6414 0
M  V30 78 H 3.8524 -5.5472 0.0492 0
M  V30 79 H 2.4697 -5.038 -0.8851 0
M  V30 80 H 0.366 -4.0939 4.5528 0
M  V30 81 H 4.141 -6.1719 3.493 0
M  V30 82 H 2.6878 -7.3422 -0.9948 0
M  V30 83 H 2.7555 -7.5312 0.6131 0
M  V30 END ATOM
M  V30 BEGIN BOND
M  V30 1 2 1 2
M  V30 2 1 2 3
M  V30 3 1 2 4
M  V30 4 1 3 5
M  V30 5 1 4 6
M  V30 6 1 4 7
M  V30 7 1 5 8
M  V30 8 1 5 9
M  V30 9 1 7 10
M  V30 10 1 8 11
M  V30 11 1 8 12
M  V30 12 1 9 13
M  V30 13 1 10 14
M  V30 14 1 11 15
M  V30 15 1 12 16
M  V30 16 1 12 17
M  V30 17 1 13 18
M  V30 18 1 15 19
M  V30 19 1 15 20
M  V30 20 1 17 21
M  V30 21 1 19 22
M  V30 22 1 20 23
M  V30 23 1 20 24
M  V30 24 1 21 25
M  V30 25 1 22 26
M  V30 26 1 22 27
M  V30 27 1 24 28
M  V30 28 1 25 29
M  V30 29 1 25 30
M  V30 30 1 26 31
M  V30 31 1 27 32
M  V30 32 1 29 33
M  V30 33 1 30 34
M  V30 34 1 30 35
M  V30 35 1 33 36
M  V30 36 1 33 37
M  V30 37 1 35 38
M  V30 38 1 36 39
M  V30 39 1 37 40
M  V30 40 1 13 17
M  V30 41 1 24 26
M  V30 42 1 35 36
M  V30 43 1 3 41
M  V30 44 1 4 42
M  V30 45 1 5 43
M  V30 46 1 6 44
M  V30 47 1 7 45
M  V30 48 1 7 46
M  V30 49 1 8 47
M  V30 50 1 9 48
M  V30 51 1 9 49
M  V30 52 1 10 50
M  V30 53 1 10 51
M  V30 54 1 12 52
M  V30 55 1 13 53
M  V30 56 1 14 54
M  V30 57 1 14 55
M  V30 58 1 15 56
M  V30 59 1 16 57
M  V30 60 1 17 58
M  V30 61 1 18 59
M  V30 62 1 18 60
M  V30 63 1 20 61
M  V30 64 1 22 62
M  V30 65 1 23 63
M  V30 66 1 24 64
M  V30 67 1 25 65
M  V30 68 1 26 66
M  V30 69 1 27 67
M  V30 70 1 27 68
M  V30 71 1 28 69
M  V30 72 1 28 70
M  V30 73 1 30 71
M  V30 74 1 31 72
M  V30 75 1 32 73
M  V30 76 1 33 74
M  V30 77 1 34 75
M  V30 78 1 35 76
M  V30 79 1 36 77
M  V30 80 1 37 78
M  V30 81 1 37 79
M  V30 82 1 38 80
M  V30 83 1 39 81
M  V30 84 1 40 82
M  V30 85 1 40 83
M  V30 END BOND
M  V30 BEGIN COLLECTION
M  V30 MDLV30/STEABS ATOMS=(16 4 5 8 12 13 15 17 20 22 24 25 26 30 33 35 36)
M  V30 END COLLECTION
M  V30 END CTAB
M  END
>  <level_0>
3674

>  <index>
3674

>  <NO.>
3675

>  <Name>


>  <SMILES>
NCC[C@H](O)C(=O)N[C@H]1C[C@H](N)[C@H](O[C@@H]2O[C@@H](CN)[C@@H](O)[C@H](O)[C@@H]2O)[C@H](O)[C@H]1O[C@H]1O[C@@H](CO)[C@@H](O)[C@H](N)[C@@H]1O

>  <logBB>


>  <Class>
-1

>  <MW>
585.29

>  <nHBAcc>
17

>  <nHBDon>
13

>  <SLogP>
-8.42

>  <TopoPSA>
331.94

>  <MMFF94 Energy>
284.25

$$$$
NC[C@@H]1O[C@@H](O[C@@H]2C(CO)O[C@@H](O[C@H]3[C@@H](O)[C@@H](N)C[C@H](N)[C@@H]3O[C@@H]3O[C@@H](CN)[C@@H](O)[C@@H](O)[C@@H]3N)[C@H]2O)[C@@H](N)[C@H](O)[C@@H]1O
Actelion Java MolfileCreator 2.0

  0  0  0  0  0  0              0 V3000
M  V30 BEGIN CTAB
M  V30 COUNTS 88 91 0 0 0
M  V30 BEGIN ATOM
M  V30 1 O 4.2969 1.2716 1.1126 0
M  V30 2 C 3.4753 2.0603 1.9654 0 CFG=1
M  V30 3 C 5.0333 0.2369 1.7979 0 CFG=2
M  V30 4 O 2.4143 1.3076 2.5684 0
M  V30 5 C 4.3063 2.7374 3.0873 0 CFG=1
M  V30 6 C 5.9257 0.8091 2.9161 0 CFG=2
M  V30 7 C 5.8249 -0.5596 0.7379 0
M  V30 8 C 1.5423 0.6501 1.6243 0 CFG=2
M  V30 9 N 3.506 3.5347 4.0565 0
M  V30 10 C 5.0788 1.6578 3.8665 0 CFG=1
M  V30 11 O 6.9801 1.6348 2.3925 0
M  V30 12 N 6.7051 0.2735 -0.0918 0
M  V30 13 C 0.5924 1.6378 0.9041 0 CFG=1
M  V30 14 C 0.7089 -0.4122 2.4016 0 CFG=1
M  V30 15 O 5.9423 2.295 4.8239 0
M  V30 16 O -0.1107 0.8759 -0.0906 0
M  V30 17 C -0.3167 2.314 1.9615 0 CFG=1
M  V30 18 N 1.6021 -1.3646 3.0905 0
M  V30 19 C -0.2207 0.2503 3.4326 0
M  V30 20 C -0.5596 1.6082 -1.2306 0 CFG=2
M  V30 21 O -1.1826 3.2899 1.3777 0
M  V30 22 C -1.1358 1.3183 2.8173 0 CFG=2
M  V30 23 O -1.8155 2.243 -0.9461 0
M  V30 24 C -0.8422 0.5997 -2.3491 0 CFG=1
M  V30 25 N -2.2399 0.7021 2.0623 0
M  V30 26 C -2.8763 1.3931 -1.4639 0
M  V30 27 O 0.1208 -0.4495 -2.4199 0
M  V30 28 C -2.2217 0.0984 -1.9467 0 CFG=1
M  V30 29 C -3.6059 2.1869 -2.5513 0
M  V30 30 O -2.8739 -0.5341 -3.0468 0
M  V30 31 O -4.1852 3.3596 -1.9791 0
M  V30 32 C -3.9637 -1.3733 -2.6418 0 CFG=2
M  V30 33 O -3.5289 -2.4543 -1.8227 0
M  V30 34 C -4.7075 -1.8877 -3.9021 0 CFG=1
M  V30 35 C -2.6441 -3.3746 -2.4973 0 CFG=2
M  V30 36 N -5.1533 -0.8247 -4.8424 0
M  V30 37 C -3.7937 -2.8615 -4.6697 0 CFG=1
M  V30 38 C -3.3008 -3.9817 -3.7515 0 CFG=2
M  V30 39 C -2.1996 -4.4376 -1.4691 0
M  V30 40 O -4.5342 -3.4403 -5.7589 0
M  V30 41 O -4.4227 -4.8178 -3.4177 0
M  V30 42 N -3.318 -5.124 -0.8085 0
M  V30 43 H 3.0388 2.8571 1.3551 0
M  V30 44 H 4.3092 -0.4536 2.2467 0
M  V30 45 H 5.0317 3.4231 2.6315 0
M  V30 46 H 6.4149 -0.0015 3.4678 0
M  V30 47 H 5.1169 -1.0541 0.0632 0
M  V30 48 H 6.4194 -1.3418 1.2216 0
M  V30 49 H 2.1415 0.1113 0.8788 0
M  V30 50 H 3.0729 4.3145 3.5579 0
M  V30 51 H 2.7206 2.9514 4.36 0
M  V30 52 H 4.3893 1.0117 4.4243 0
M  V30 53 H 7.3489 2.0906 3.1788 0
M  V30 54 H 6.1147 0.9837 -0.5307 0
M  V30 55 H 7.2823 0.8288 0.5547 0
M  V30 56 H 1.1746 2.4146 0.3978 0
M  V30 57 H 0.1063 -0.9889 1.6901 0
M  V30 58 H 5.3957 3.0209 5.1943 0
M  V30 59 H 0.3273 2.8805 2.6459 0
M  V30 60 H 2.1733 -0.8463 3.7582 0
M  V30 61 H 1.0437 -2.0198 3.6374 0
M  V30 62 H 0.3803 0.7275 4.2193 0
M  V30 63 H -0.8245 -0.5131 3.9412 0
M  V30 64 H 0.1873 2.3458 -1.5418 0
M  V30 65 H -1.6632 2.824 0.6623 0
M  V30 66 H -1.6081 1.8796 3.6338 0
M  V30 67 H -0.8857 1.0893 -3.3285 0
M  V30 68 H -2.9111 1.4378 1.8325 0
M  V30 69 H -2.7471 0.0577 2.6708 0
M  V30 70 H -3.5691 1.1982 -0.6381 0
M  V30 71 H 0.3263 -0.6901 -1.4942 0
M  V30 72 H -2.1039 -0.6092 -1.1158 0
M  V30 73 H -2.9223 2.514 -3.3408 0
M  V30 74 H -4.4155 1.607 -3.0009 0
M  V30 75 H -3.4722 3.8072 -1.4841 0
M  V30 76 H -4.6648 -0.7732 -2.0496 0
M  V30 77 H -5.607 -2.4315 -3.587 0
M  V30 78 H -1.7457 -2.8221 -2.8008 0
M  V30 79 H -5.8192 -0.2172 -4.3616 0
M  V30 80 H -4.3454 -0.2276 -5.0419 0
M  V30 81 H -2.9345 -2.3318 -5.0997 0
M  V30 82 H -2.5888 -4.6214 -4.285 0
M  V30 83 H -1.6129 -3.9473 -0.6839 0
M  V30 84 H -1.5523 -5.1791 -1.9488 0
M  V30 85 H -5.0368 -2.6857 -6.1338 0
M  V30 86 H -4.8742 -4.9736 -4.2744 0
M  V30 87 H -3.9013 -4.3981 -0.3855 0
M  V30 88 H -3.9237 -5.4865 -1.5581 0
M  V30 END ATOM
M  V30 BEGIN BOND
M  V30 1 1 1 2
M  V30 2 1 1 3
M  V30 3 1 2 4
M  V30 4 1 2 5
M  V30 5 1 3 6
M  V30 6 1 3 7
M  V30 7 1 4 8
M  V30 8 1 5 9
M  V30 9 1 5 10
M  V30 10 1 6 11
M  V30 11 1 7 12
M  V30 12 1 8 13
M  V30 13 1 8 14
M  V30 14 1 10 15
M  V30 15 1 13 16
M  V30 16 1 13 17
M  V30 17 1 14 18
M  V30 18 1 14 19
M  V30 19 1 16 20
M  V30 20 1 17 21
M  V30 21 1 17 22
M  V30 22 1 20 23
M  V30 23 1 20 24
M  V30 24 1 22 25
M  V30 25 1 23 26
M  V30 26 1 24 27
M  V30 27 1 24 28
M  V30 28 1 26 29
M  V30 29 1 28 30
M  V30 30 1 29 31
M  V30 31 1 30 32
M  V30 32 1 32 33
M  V30 33 1 32 34
M  V30 34 1 33 35
M  V30 35 1 34 36
M  V30 36 1 34 37
M  V30 37 1 35 38
M  V30 38 1 35 39
M  V30 39 1 37 40
M  V30 40 1 38 41
M  V30 41 1 39 42
M  V30 42 1 6 10
M  V30 43 1 19 22
M  V30 44 1 26 28
M  V30 45 1 37 38
M  V30 46 1 2 43
M  V30 47 1 3 44
M  V30 48 1 5 45
M  V30 49 1 6 46
M  V30 50 1 7 47
M  V30 51 1 7 48
M  V30 52 1 8 49
M  V30 53 1 9 50
M  V30 54 1 9 51
M  V30 55 1 10 52
M  V30 56 1 11 53
M  V30 57 1 12 54
M  V30 58 1 12 55
M  V30 59 1 13 56
M  V30 60 1 14 57
M  V30 61 1 15 58
M  V30 62 1 17 59
M  V30 63 1 18 60
M  V30 64 1 18 61
M  V30 65 1 19 62
M  V30 66 1 19 63
M  V30 67 1 20 64
M  V30 68 1 21 65
M  V30 69 1 22 66
M  V30 70 1 24 67
M  V30 71 1 25 68
M  V30 72 1 25 69
M  V30 73 1 26 70
M  V30 74 1 27 71
M  V30 75 1 28 72
M  V30 76 1 29 73
M  V30 77 1 29 74
M  V30 78 1 31 75
M  V30 79 1 32 76
M  V30 80 1 34 77
M  V30 81 1 35 78
M  V30 82 1 36 79
M  V30 83 1 36 80
M  V30 84 1 37 81
M  V30 85 1 38 82
M  V30 86 1 39 83
M  V30 87 1 39 84
M  V30 88 1 40 85
M  V30 89 1 41 86
M  V30 90 1 42 87
M  V30 91 1 42 88
M  V30 END BOND
M  V30 BEGIN COLLECTION
M  V30 MDLV30/STEABS ATOMS=(18 2 3 5 6 8 10 13 14 17 20 22 24 28 32 34 35 37 38)
M  V30 END COLLECTION
M  V30 END CTAB
M  END
>  <level_0>
3682

>  <index>
3682

>  <NO.>
3683

>  <Name>


>  <SMILES>
NC[C@@H]1O[C@@H](O[C@@H]2C(CO)O[C@@H](O[C@H]3[C@@H](O)[C@@H](N)C[C@H](N)[C@@H]3O[C@@H]3O[C@@H](CN)[C@@H](O)[C@@H](O)[C@@H]3N)[C@H]2O)[C@@H](N)[C@H](O)[C@@H]1O

>  <logBB>


>  <Class>
-1

>  <MW>
614.31

>  <nHBAcc>
19

>  <nHBDon>
13

>  <SLogP>
-8.9

>  <TopoPSA>
353.11

>  <MMFF94 Energy>
346.99

$$$$
Nc1ccn([C@H]2O[C@@H](CO)[C@@H](O)[C@@H]2O)c(=O)n1
Actelion Java MolfileCreator 2.0

  0  0  0  0  0  0              0 V3000
M  V30 BEGIN CTAB
M  V30 COUNTS 30 31 0 0 0
M  V30 BEGIN ATOM
M  V30 1 O -1.585 2.2989 0.7922 0
M  V30 2 C -1.7791 1.4638 -0.0917 0
M  V30 3 N -2.6309 1.7277 -1.1336 0
M  V30 4 N -1.1068 0.2374 -0.0617 0
M  V30 5 C -2.7854 0.8545 -2.0786 0
M  V30 6 C -1.2697 -0.6831 -1.0727 0
M  V30 7 C -0.2278 -0.0025 1.0818 0 CFG=1
M  V30 8 N -3.6419 1.1739 -3.0853 0
M  V30 9 C -2.0812 -0.4413 -2.1007 0
M  V30 10 O 0.2251 -1.3759 1.114 0
M  V30 11 C 1.0277 0.8893 1.072 0 CFG=1
M  V30 12 C 1.6593 -1.3777 1.3346 0 CFG=2
M  V30 13 O 0.8964 2.1377 1.7504 0
M  V30 14 C 2.0236 0.0184 1.8114 0 CFG=1
M  V30 15 C 2.34 -1.8101 0.0325 0
M  V30 16 O 3.364 0.4001 1.5471 0
M  V30 17 O 1.8782 -3.1125 -0.3408 0
M  V30 18 H -0.7221 -1.617 -1.0131 0
M  V30 19 H -0.811 0.1719 1.9953 0
M  V30 20 H -4.1098 2.0709 -3.0375 0
M  V30 21 H -3.8384 0.5678 -3.8679 0
M  V30 22 H -2.2384 -1.1363 -2.9121 0
M  V30 23 H 1.372 1.102 0.053 0
M  V30 24 H 1.8672 -2.1255 2.1079 0
M  V30 25 H 0.0373 2.5312 1.4726 0
M  V30 26 H 1.8613 0.099 2.8938 0
M  V30 27 H 3.4273 -1.8552 0.1402 0
M  V30 28 H 2.0917 -1.1361 -0.7929 0
M  V30 29 H 3.4225 1.3472 1.7835 0
M  V30 30 H 0.9454 -3.1652 -0.0597 0
M  V30 END ATOM
M  V30 BEGIN BOND
M  V30 1 2 1 2
M  V30 2 1 2 3
M  V30 3 1 2 4
M  V30 4 2 3 5
M  V30 5 1 4 6
M  V30 6 1 4 7
M  V30 7 1 5 8
M  V30 8 1 5 9
M  V30 9 1 7 10
M  V30 10 1 7 11
M  V30 11 1 10 12
M  V30 12 1 11 13
M  V30 13 1 11 14
M  V30 14 1 12 15
M  V30 15 1 14 16
M  V30 16 1 15 17
M  V30 17 2 6 9
M  V30 18 1 12 14
M  V30 19 1 6 18
M  V30 20 1 7 19
M  V30 21 1 8 20
M  V30 22 1 8 21
M  V30 23 1 9 22
M  V30 24 1 11 23
M  V30 25 1 12 24
M  V30 26 1 13 25
M  V30 27 1 14 26
M  V30 28 1 15 27
M  V30 29 1 15 28
M  V30 30 1 16 29
M  V30 31 1 17 30
M  V30 END BOND
M  V30 BEGIN COLLECTION
M  V30 MDLV30/STEABS ATOMS=(4 7 11 12 14)
M  V30 END COLLECTION
M  V30 END CTAB
M  END
>  <level_0>
3705

>  <index>
3705

>  <NO.>
3706

>  <Name>
.beta.-l-xylo-c

>  <SMILES>
Nc1ccn([C@H]2O[C@@H](CO)[C@@H](O)[C@@H]2O)c(=O)n1

>  <logBB>


>  <Class>
1

>  <MW>
243.09

>  <nHBAcc>
7

>  <nHBDon>
4

>  <SLogP>
-2.56

>  <TopoPSA>
130.83

>  <MMFF94 Energy>
-15.655

$$$$
Nc1nc(Cl)nc2c1ncn2[C@@H]1C[C@H](O)[C@H](CO)O1
Actelion Java MolfileCreator 2.0

  0  0  0  0  0  0              0 V3000
M  V30 BEGIN CTAB
M  V30 COUNTS 31 33 0 0 0
M  V30 BEGIN ATOM
M  V30 1 Cl 3.1593 3.4026 -2.916 0
M  V30 2 C 2.7403 2.6013 -1.4619 0
M  V30 3 N 3.45 2.9656 -0.376 0
M  V30 4 N 1.7458 1.6965 -1.5725 0
M  V30 5 C 3.1555 2.3638 0.7968 0
M  V30 6 C 1.4993 1.1292 -0.3802 0
M  V30 7 N 3.8681 2.727 1.9164 0
M  V30 8 C 2.1345 1.3966 0.8219 0
M  V30 9 N 0.5709 0.1673 -0.0843 0
M  V30 10 N 1.606 0.6258 1.8353 0
M  V30 11 C 0.6605 -0.0873 1.2571 0
M  V30 12 C -0.3318 -0.4345 -1.0452 0 CFG=1
M  V30 13 O -0.5855 -1.8127 -0.6755 0
M  V30 14 C -1.6795 0.2771 -1.1672 0
M  V30 15 C -2.0096 -2.0191 -0.7918 0 CFG=2
M  V30 16 C -2.624 -0.6617 -0.4503 0 CFG=1
M  V30 17 C -2.444 -3.1871 0.0878 0
M  V30 18 O -2.5799 -0.3392 0.9365 0
M  V30 19 O -2.1726 -2.917 1.4626 0
M  V30 20 H 4.5821 3.4321 1.8275 0
M  V30 21 H 3.6504 2.2892 2.8008 0
M  V30 22 H 0.015 -0.7949 1.7601 0
M  V30 23 H 0.185 -0.45 -2.0117 0
M  V30 24 H -1.9562 0.3345 -2.227 0
M  V30 25 H -1.6707 1.2935 -0.7605 0
M  V30 26 H -2.2124 -2.268 -1.8414 0
M  V30 27 H -3.6597 -0.5713 -0.7894 0
M  V30 28 H -1.9075 -4.102 -0.1836 0
M  V30 29 H -3.5184 -3.3665 -0.0145 0
M  V30 30 H -2.7626 -1.1584 1.4458 0
M  V30 31 H -1.1991 -2.9385 1.5486 0
M  V30 END ATOM
M  V30 BEGIN BOND
M  V30 1 1 1 2
M  V30 2 2 2 3
M  V30 3 1 2 4
M  V30 4 1 3 5
M  V30 5 2 4 6
M  V30 6 1 5 7
M  V30 7 2 5 8
M  V30 8 1 6 9
M  V30 9 1 8 10
M  V30 10 1 9 11
M  V30 11 1 9 12
M  V30 12 1 12 13
M  V30 13 1 12 14
M  V30 14 1 13 15
M  V30 15 1 14 16
M  V30 16 1 15 17
M  V30 17 1 16 18
M  V30 18 1 17 19
M  V30 19 1 6 8
M  V30 20 2 10 11
M  V30 21 1 15 16
M  V30 22 1 7 20
M  V30 23 1 7 21
M  V30 24 1 11 22
M  V30 25 1 12 23
M  V30 26 1 14 24
M  V30 27 1 14 25
M  V30 28 1 15 26
M  V30 29 1 16 27
M  V30 30 1 17 28
M  V30 31 1 17 29
M  V30 32 1 18 30
M  V30 33 1 19 31
M  V30 END BOND
M  V30 BEGIN COLLECTION
M  V30 MDLV30/STEABS ATOMS=(3 12 15 16)
M  V30 END COLLECTION
M  V30 END CTAB
M  END
>  <level_0>
3708

>  <index>
3708

>  <NO.>
3709

>  <Name>
zinc3830565

>  <SMILES>
Nc1nc(Cl)nc2c1ncn2[C@@H]1C[C@H](O)[C@H](CO)O1

>  <logBB>


>  <Class>
1

>  <MW>
285.06

>  <nHBAcc>
7

>  <nHBDon>
3

>  <SLogP>
-0.3

>  <TopoPSA>
119.31

>  <MMFF94 Energy>
31.765

$$$$
Nc1nc2c(c(=O)[nH]1)N(C=O)[C@@H](CNc1ccc(C(=O)N[C@@H](CCC(=O)O)C(=O)O)cc1)CN2
Actelion Java MolfileCreator 2.0

  0  0  0  0  0  0              0 V3000
M  V30 BEGIN CTAB
M  V30 COUNTS 57 59 0 0 0
M  V30 BEGIN ATOM
M  V30 1 O 1.0289 -0.5539 6.6631 0
M  V30 2 C -0.0386 0.0523 6.6534 0
M  V30 3 N -1.073 -0.365 7.4368 0
M  V30 4 C -0.3639 1.1555 5.7007 0
M  V30 5 C -2.3577 -0.0269 7.171 0
M  V30 6 N 0.6296 1.8281 4.9756 0
M  V30 7 C -1.6852 1.4028 5.5075 0
M  V30 8 N -2.6824 0.7945 6.2279 0
M  V30 9 N -3.3092 -0.6051 7.9323 0
M  V30 10 C 1.9258 1.9823 5.4403 0
M  V30 11 C 0.2335 2.501 3.7149 0 CFG=2
M  V30 12 N -2.0661 2.3418 4.5665 0
M  V30 13 O 2.3334 1.8284 6.5833 0
M  V30 14 C -1.1367 3.1999 3.8643 0
M  V30 15 C 0.2392 1.5034 2.5322 0
M  V30 16 N 0.3058 2.1921 1.2463 0
M  V30 17 C 0.2117 1.5428 0.0277 0
M  V30 18 C -0.0077 0.167 -0.1019 0
M  V30 19 C 0.2851 2.3013 -1.1483 0
M  V30 20 C -0.1222 -0.4407 -1.3606 0
M  V30 21 C 0.1716 1.7062 -2.4097 0
M  V30 22 C -0.0191 0.3273 -2.523 0
M  V30 23 C -0.1353 -0.2598 -3.8866 0
M  V30 24 O -0.486 0.4352 -4.8337 0
M  V30 25 N 0.196 -1.5876 -4.0216 0
M  V30 26 C 0.106 -2.2791 -5.3091 0 CFG=2
M  V30 27 C -0.0343 -3.7666 -4.9956 0
M  V30 28 C 1.351 -2.0073 -6.1577 0
M  V30 29 O 0.3892 -4.3326 -3.9976 0
M  V30 30 O -0.6763 -4.4599 -5.9553 0
M  V30 31 C 1.185 -2.4615 -7.6069 0
M  V30 32 C 2.3297 -2.0107 -8.47 0
M  V30 33 O 2.2389 -1.443 -9.5451 0
M  V30 34 O 3.5339 -2.3532 -7.9766 0
M  V30 35 H -0.8522 -1.0712 8.1172 0
M  V30 36 H -4.2729 -0.3617 7.7409 0
M  V30 37 H -3.1145 -1.238 8.6916 0
M  V30 38 H 2.6077 2.3404 4.6504 0
M  V30 39 H 0.9791 3.2791 3.5018 0
M  V30 40 H -3.0635 2.5224 4.5349 0
M  V30 41 H -1.5491 3.4969 2.8948 0
M  V30 42 H -1.0075 4.1138 4.4568 0
M  V30 43 H 1.1139 0.8467 2.619 0
M  V30 44 H -0.654 0.8694 2.5828 0
M  V30 45 H 0.6 3.1618 1.2227 0
M  V30 46 H -0.0993 -0.467 0.7755 0
M  V30 47 H 0.4287 3.378 -1.0972 0
M  V30 48 H -0.3198 -1.5075 -1.401 0
M  V30 49 H 0.2322 2.3258 -3.3022 0
M  V30 50 H 0.5621 -2.1191 -3.2396 0
M  V30 51 H -0.8057 -1.9305 -5.8076 0
M  V30 52 H 1.5808 -0.9338 -6.1498 0
M  V30 53 H 2.2221 -2.5036 -5.7099 0
M  V30 54 H -0.6996 -5.3809 -5.6191 0
M  V30 55 H 1.1151 -3.5509 -7.6851 0
M  V30 56 H 0.2666 -2.0349 -8.0264 0
M  V30 57 H 4.1664 -2.0194 -8.6473 0
M  V30 END ATOM
M  V30 BEGIN BOND
M  V30 1 2 1 2
M  V30 2 1 2 3
M  V30 3 1 2 4
M  V30 4 1 3 5
M  V30 5 1 4 6
M  V30 6 2 4 7
M  V30 7 2 5 8
M  V30 8 1 5 9
M  V30 9 1 6 10
M  V30 10 1 6 11
M  V30 11 1 7 12
M  V30 12 2 10 13
M  V30 13 1 11 14
M  V30 14 1 11 15
M  V30 15 1 15 16
M  V30 16 1 16 17
M  V30 17 2 17 18
M  V30 18 1 17 19
M  V30 19 1 18 20
M  V30 20 2 19 21
M  V30 21 2 20 22
M  V30 22 1 22 23
M  V30 23 2 23 24
M  V30 24 1 23 25
M  V30 25 1 25 26
M  V30 26 1 26 27
M  V30 27 1 26 28
M  V30 28 2 27 29
M  V30 29 1 27 30
M  V30 30 1 28 31
M  V30 31 1 31 32
M  V30 32 2 32 33
M  V30 33 1 32 34
M  V30 34 1 7 8
M  V30 35 1 12 14
M  V30 36 1 21 22
M  V30 37 1 3 35
M  V30 38 1 9 36
M  V30 39 1 9 37
M  V30 40 1 10 38
M  V30 41 1 11 39
M  V30 42 1 12 40
M  V30 43 1 14 41
M  V30 44 1 14 42
M  V30 45 1 15 43
M  V30 46 1 15 44
M  V30 47 1 16 45
M  V30 48 1 18 46
M  V30 49 1 19 47
M  V30 50 1 20 48
M  V30 51 1 21 49
M  V30 52 1 25 50
M  V30 53 1 26 51
M  V30 54 1 28 52
M  V30 55 1 28 53
M  V30 56 1 30 54
M  V30 57 1 31 55
M  V30 58 1 31 56
M  V30 59 1 34 57
M  V30 END BOND
M  V30 BEGIN COLLECTION
M  V30 MDLV30/STEABS ATOMS=(2 11 26)
M  V30 END COLLECTION
M  V30 END CTAB
M  END
>  <level_0>
3710

>  <index>
3710

>  <NO.>
3711

>  <Name>
levoleucovorin

>  <SMILES>
Nc1nc2c(c(=O)[nH]1)N(C=O)[C@@H](CNc1ccc(C(=O)N[C@@H](CCC(=O)O)C(=O)O)cc1)CN2

>  <logBB>


>  <Class>
1

>  <MW>
473.17

>  <nHBAcc>
9

>  <nHBDon>
7

>  <SLogP>
-0.73

>  <TopoPSA>
219.84

>  <MMFF94 Energy>
-77.4

$$$$
Nc1ncnc2c1ncn2[C@H]1O[C@@H](CO)[C@@H](O)[C@@H]1O
Actelion Java MolfileCreator 2.0

  0  0  0  0  0  0              0 V3000
M  V30 BEGIN CTAB
M  V30 COUNTS 32 34 0 0 0
M  V30 BEGIN ATOM
M  V30 1 O 0.0798 -0.479 1.9972 0
M  V30 2 C 0.5819 -0.7807 0.671 0 CFG=2
M  V30 3 C -1.0434 -1.3565 2.241 0 CFG=2
M  V30 4 N 0.6295 0.441 -0.1115 0
M  V30 5 C -0.3204 -1.8642 0.0544 0 CFG=2
M  V30 6 C -1.5966 -1.7406 0.8704 0 CFG=2
M  V30 7 C -2.0297 -0.6418 3.1568 0
M  V30 8 C 1.3237 0.5864 -1.2822 0
M  V30 9 C 0.0203 1.6376 0.1552 0
M  V30 10 O 0.245 -3.1669 0.2613 0
M  V30 11 O -2.4131 -0.7198 0.3013 0
M  V30 12 O -1.428 -0.4187 4.4312 0
M  V30 13 N 2.0565 -0.34 -1.9216 0
M  V30 14 C 1.0999 1.8969 -1.6709 0
M  V30 15 N 0.284 2.5438 -0.7645 0
M  V30 16 C 2.5964 0.1732 -3.0464 0
M  V30 17 C 1.7124 2.3129 -2.865 0
M  V30 18 N 2.4684 1.4214 -3.547 0
M  V30 19 N 1.5796 3.584 -3.3746 0
M  V30 20 H 1.6152 -1.1272 0.7884 0
M  V30 21 H -0.6325 -2.2375 2.7503 0
M  V30 22 H -0.4738 -1.7257 -1.0211 0
M  V30 23 H -2.1726 -2.6709 0.9101 0
M  V30 24 H -2.9322 -1.2406 3.309 0
M  V30 25 H -2.3136 0.3375 2.7586 0
M  V30 26 H -0.601 1.7948 1.0279 0
M  V30 27 H -0.1017 -3.7464 -0.4412 0
M  V30 28 H -3.3145 -0.8102 0.66 0
M  V30 29 H -0.5636 -4.0E-4 4.2519 0
M  V30 30 H 3.2148 -0.5047 -3.6279 0
M  V30 31 H 1.0219 4.2578 -2.8697 0
M  V30 32 H 2.0553 3.8082 -4.2329 0
M  V30 END ATOM
M  V30 BEGIN BOND
M  V30 1 1 1 2
M  V30 2 1 1 3
M  V30 3 1 2 4
M  V30 4 1 2 5
M  V30 5 1 3 6
M  V30 6 1 3 7
M  V30 7 1 4 8
M  V30 8 1 4 9
M  V30 9 1 5 10
M  V30 10 1 6 11
M  V30 11 1 7 12
M  V30 12 2 8 13
M  V30 13 1 8 14
M  V30 14 2 9 15
M  V30 15 1 13 16
M  V30 16 2 14 17
M  V30 17 2 16 18
M  V30 18 1 17 19
M  V30 19 1 5 6
M  V30 20 1 14 15
M  V30 21 1 17 18
M  V30 22 1 2 20
M  V30 23 1 3 21
M  V30 24 1 5 22
M  V30 25 1 6 23
M  V30 26 1 7 24
M  V30 27 1 7 25
M  V30 28 1 9 26
M  V30 29 1 10 27
M  V30 30 1 11 28
M  V30 31 1 12 29
M  V30 32 1 16 30
M  V30 33 1 19 31
M  V30 34 1 19 32
M  V30 END BOND
M  V30 BEGIN COLLECTION
M  V30 MDLV30/STEABS ATOMS=(4 2 3 5 6)
M  V30 END COLLECTION
M  V30 END CTAB
M  END
>  <level_0>
3712

>  <index>
3712

>  <NO.>
3713

>  <Name>
l-adenosine

>  <SMILES>
Nc1ncnc2c1ncn2[C@H]1O[C@@H](CO)[C@@H](O)[C@@H]1O

>  <logBB>


>  <Class>
1

>  <MW>
267.1

>  <nHBAcc>
8

>  <nHBDon>
4

>  <SLogP>
-1.98

>  <TopoPSA>
139.54

>  <MMFF94 Energy>
82.502

$$$$
O=C1O[C@@H]([C@@H](O)CO)C(O)=C1O
Actelion Java MolfileCreator 2.0

  0  0  0  0  0  0              0 V3000
M  V30 BEGIN CTAB
M  V30 COUNTS 20 20 0 0 0
M  V30 BEGIN ATOM
M  V30 1 O 2.2141 -1.6602 2.4516 0
M  V30 2 C 1.3879 -1.3815 1.6027 0
M  V30 3 O 0.5627 -0.2876 1.6446 0
M  V30 4 C 1.1181 -2.1228 0.3574 0
M  V30 5 C -0.2824 -0.2677 0.4848 0 CFG=2
M  V30 6 O 1.7588 -3.2488 -0.0706 0
M  V30 7 C 0.1645 -1.4576 -0.2812 0
M  V30 8 C -0.1005 1.0425 -0.3015 0 CFG=1
M  V30 9 O -0.3406 -1.7845 -1.5139 0
M  V30 10 O -0.8604 0.9725 -1.5297 0
M  V30 11 C -0.5864 2.2555 0.5007 0
M  V30 12 O -1.9932 2.1751 0.7212 0
M  V30 13 H -1.324 -0.4031 0.7994 0
M  V30 14 H 1.3413 -3.4815 -0.9215 0
M  V30 15 H 0.9561 1.1851 -0.5591 0
M  V30 16 H -0.864 -1.0119 -1.8253 0
M  V30 17 H -0.63 1.7694 -2.0461 0
M  V30 18 H -0.4026 3.1779 -0.0599 0
M  V30 19 H -0.0828 2.333 1.4686 0
M  V30 20 H -2.4061 1.9681 -0.138 0
M  V30 END ATOM
M  V30 BEGIN BOND
M  V30 1 2 1 2
M  V30 2 1 2 3
M  V30 3 1 2 4
M  V30 4 1 3 5
M  V30 5 1 4 6
M  V30 6 2 4 7
M  V30 7 1 5 8
M  V30 8 1 7 9
M  V30 9 1 8 10
M  V30 10 1 8 11
M  V30 11 1 11 12
M  V30 12 1 5 7
M  V30 13 1 5 13
M  V30 14 1 6 14
M  V30 15 1 8 15
M  V30 16 1 9 16
M  V30 17 1 10 17
M  V30 18 1 11 18
M  V30 19 1 11 19
M  V30 20 1 12 20
M  V30 END BOND
M  V30 BEGIN COLLECTION
M  V30 MDLV30/STEABS ATOMS=(2 5 8)
M  V30 END COLLECTION
M  V30 END CTAB
M  END
>  <level_0>
3768

>  <index>
3768

>  <NO.>
3769

>  <Name>
l-isoascorbic acid

>  <SMILES>
O=C1O[C@@H]([C@@H](O)CO)C(O)=C1O

>  <logBB>


>  <Class>
1

>  <MW>
176.03

>  <nHBAcc>
6

>  <nHBDon>
4

>  <SLogP>
-1.41

>  <TopoPSA>
107.22

>  <MMFF94 Energy>
71.815

$$$$
CC(C)C1CCC(C(=O)N[C@@H](Cc2ccccc2)C(=O)N2CCCC[C@H]2c2cccnc2)CC1
Actelion Java MolfileCreator 2.0

  0  0  0  0  0  0              0 V3000
M  V30 BEGIN CTAB
M  V30 COUNTS 73 76 0 0 0
M  V30 BEGIN ATOM
M  V30 1 O 1.746 0.3966 -1.5872 0
M  V30 2 C 0.7428 0.8205 -1.0211 0
M  V30 3 N 0.3333 0.3495 0.1994 0
M  V30 4 C -0.1544 1.9145 -1.5903 0
M  V30 5 C 1.0615 -0.6844 0.9288 0 CFG=2
M  V30 6 C 0.5199 2.6242 -2.7692 0
M  V30 7 C -1.5065 1.327 -2.0117 0
M  V30 8 C 0.1033 -1.3115 1.9661 0
M  V30 9 C 2.3467 -0.1531 1.5957 0
M  V30 10 C -0.3906 3.6867 -3.3818 0
M  V30 11 C -2.4164 2.3829 -2.6414 0
M  V30 12 O -0.8742 -0.6617 2.3596 0
M  V30 13 N 0.3851 -2.5816 2.4787 0
M  V30 14 C 2.1756 1.0996 2.4274 0
M  V30 15 C -1.7369 3.0876 -3.8281 0
M  V30 16 C 1.3244 -3.5358 1.8506 0 CFG=2
M  V30 17 C -0.4913 -3.0681 3.5484 0
M  V30 18 C 2.456 2.357 1.873 0
M  V30 19 C 1.7287 1.0282 3.7533 0
M  V30 20 C -2.6297 4.1448 -4.5353 0
M  V30 21 C 0.7565 -4.2271 0.6219 0
M  V30 22 C 1.9512 -4.5249 2.851 0
M  V30 23 C 0.219 -3.9669 4.5502 0
M  V30 24 C 2.2906 3.5183 2.6287 0
M  V30 25 C 1.5626 2.1913 4.5071 0
M  V30 26 C -3.8331 3.4939 -5.2264 0
M  V30 27 C -3.1155 5.274 -3.6224 0
M  V30 28 C -0.4276 -4.9567 0.6276 0
M  V30 29 C 1.4464 -4.1752 -0.5991 0
M  V30 30 C 0.9608 -5.0972 3.856 0
M  V30 31 C 1.8435 3.4353 3.9454 0
M  V30 32 N -0.9438 -5.597 -0.4485 0
M  V30 33 C 0.9366 -4.8151 -1.7259 0
M  V30 34 C -0.2529 -5.507 -1.6021 0
M  V30 35 H -0.4799 0.7398 0.6681 0
M  V30 36 H -0.3195 2.6514 -0.792 0
M  V30 37 H 1.331 -1.4407 0.1891 0
M  V30 38 H 1.4543 3.0927 -2.4367 0
M  V30 39 H 0.7961 1.8964 -3.5431 0
M  V30 40 H -1.3495 0.5075 -2.7252 0
M  V30 41 H -2.0187 0.8863 -1.148 0
M  V30 42 H 3.0938 0.0493 0.8168 0
M  V30 43 H 2.7992 -0.9223 2.2334 0
M  V30 44 H 0.1182 4.1425 -4.2393 0
M  V30 45 H -0.5483 4.481 -2.6431 0
M  V30 46 H -3.3422 1.8947 -2.9637 0
M  V30 47 H -2.6895 3.1128 -1.8704 0
M  V30 48 H -1.507 2.3157 -4.5773 0
M  V30 49 H 2.1699 -2.9408 1.4915 0
M  V30 50 H -1.331 -3.5935 3.0837 0
M  V30 51 H -0.9247 -2.2222 4.0943 0
M  V30 52 H 2.8034 2.4381 0.8448 0
M  V30 53 H 1.4981 0.0687 4.2101 0
M  V30 54 H -2.0235 4.6055 -5.3272 0
M  V30 55 H 2.4674 -5.3394 2.3286 0
M  V30 56 H 2.7225 -3.987 3.4198 0
M  V30 57 H -0.5077 -4.3774 5.26 0
M  V30 58 H 0.9324 -3.3693 5.1316 0
M  V30 59 H 2.51 4.4876 2.1889 0
M  V30 60 H 1.209 2.1263 5.5328 0
M  V30 61 H -4.3651 4.2282 -5.8414 0
M  V30 62 H -3.5131 2.6806 -5.8858 0
M  V30 63 H -4.5488 3.0893 -4.504 0
M  V30 64 H -2.2805 5.8041 -3.1563 0
M  V30 65 H -3.6835 6.0122 -4.1998 0
M  V30 66 H -3.7735 4.9029 -2.8306 0
M  V30 67 H -1.031 -5.0684 1.521 0
M  V30 68 H 2.384 -3.6305 -0.6893 0
M  V30 69 H 0.2529 -5.7708 3.3626 0
M  V30 70 H 1.4984 -5.6958 4.6002 0
M  V30 71 H 1.7122 4.3396 4.5335 0
M  V30 72 H 1.4557 -4.7718 -2.6769 0
M  V30 73 H -0.6941 -6.0224 -2.45 0
M  V30 END ATOM
M  V30 BEGIN BOND
M  V30 1 2 1 2
M  V30 2 1 2 3
M  V30 3 1 2 4
M  V30 4 1 3 5
M  V30 5 1 4 6
M  V30 6 1 4 7
M  V30 7 1 5 8
M  V30 8 1 5 9
M  V30 9 1 6 10
M  V30 10 1 7 11
M  V30 11 2 8 12
M  V30 12 1 8 13
M  V30 13 1 9 14
M  V30 14 1 10 15
M  V30 15 1 13 16
M  V30 16 1 13 17
M  V30 17 2 14 18
M  V30 18 1 14 19
M  V30 19 1 15 20
M  V30 20 1 16 21
M  V30 21 1 16 22
M  V30 22 1 17 23
M  V30 23 1 18 24
M  V30 24 2 19 25
M  V30 25 1 20 26
M  V30 26 1 20 27
M  V30 27 2 21 28
M  V30 28 1 21 29
M  V30 29 1 22 30
M  V30 30 2 24 31
M  V30 31 1 28 32
M  V30 32 2 29 33
M  V30 33 2 32 34
M  V30 34 1 11 15
M  V30 35 1 23 30
M  V30 36 1 25 31
M  V30 37 1 33 34
M  V30 38 1 3 35
M  V30 39 1 4 36
M  V30 40 1 5 37
M  V30 41 1 6 38
M  V30 42 1 6 39
M  V30 43 1 7 40
M  V30 44 1 7 41
M  V30 45 1 9 42
M  V30 46 1 9 43
M  V30 47 1 10 44
M  V30 48 1 10 45
M  V30 49 1 11 46
M  V30 50 1 11 47
M  V30 51 1 15 48
M  V30 52 1 16 49
M  V30 53 1 17 50
M  V30 54 1 17 51
M  V30 55 1 18 52
M  V30 56 1 19 53
M  V30 57 1 20 54
M  V30 58 1 22 55
M  V30 59 1 22 56
M  V30 60 1 23 57
M  V30 61 1 23 58
M  V30 62 1 24 59
M  V30 63 1 25 60
M  V30 64 1 26 61
M  V30 65 1 26 62
M  V30 66 1 26 63
M  V30 67 1 27 64
M  V30 68 1 27 65
M  V30 69 1 27 66
M  V30 70 1 28 67
M  V30 71 1 29 68
M  V30 72 1 30 69
M  V30 73 1 30 70
M  V30 74 1 31 71
M  V30 75 1 33 72
M  V30 76 1 34 73
M  V30 END BOND
M  V30 BEGIN COLLECTION
M  V30 MDLV30/STEABS ATOMS=(2 5 16)
M  V30 END COLLECTION
M  V30 END CTAB
M  END
>  <level_0>
3830

>  <index>
3830

>  <NO.>
3831

>  <Name>
methyclothiazide

>  <SMILES>
CC(C)C1CCC(C(=O)N[C@@H](Cc2ccccc2)C(=O)N2CCCC[C@H]2c2cccnc2)CC1

>  <logBB>


>  <Class>
-1

>  <MW>
461.3

>  <nHBAcc>
3

>  <nHBDon>
1

>  <SLogP>
5.33

>  <TopoPSA>
62.3

>  <MMFF94 Energy>
55.483

$$$$
CC(C)c1ccc(CCCNC(=O)[C@@H](C)SCc2ccccc2)cc1
Actelion Java MolfileCreator 2.0

  0  0  0  0  0  0              0 V3000
M  V30 BEGIN CTAB
M  V30 COUNTS 54 55 0 0 0
M  V30 BEGIN ATOM
M  V30 1 S -3.9735 -0.4761 -1.5085 0
M  V30 2 C -3.2504 0.9164 -0.5499 0 CFG=1
M  V30 3 C -5.3423 0.4092 -2.3181 0
M  V30 4 C -2.3975 0.3938 0.6104 0
M  V30 5 C -2.3946 1.8026 -1.4466 0
M  V30 6 C -6.1742 -0.5223 -3.1623 0
M  V30 7 O -2.3822 0.9611 1.7017 0
M  V30 8 N -1.5927 -0.6852 0.318 0
M  V30 9 C -5.8628 -0.7297 -4.5143 0
M  V30 10 C -7.2585 -1.2146 -2.603 0
M  V30 11 C -0.6759 -1.258 1.2786 0
M  V30 12 C -6.6296 -1.5984 -5.2929 0
M  V30 13 C -8.0237 -2.0829 -3.3835 0
M  V30 14 C 0.6666 -0.5339 1.2661 0
M  V30 15 C -7.7105 -2.2727 -4.728 0
M  V30 16 C 1.6251 -1.1378 2.2921 0
M  V30 17 C 2.9677 -0.4519 2.2721 0
M  V30 18 C 4.022 -0.9703 1.5127 0
M  V30 19 C 3.1706 0.7304 2.9923 0
M  V30 20 C 5.2606 -0.3234 1.4832 0
M  V30 21 C 4.4091 1.3768 2.9621 0
M  V30 22 C 5.4712 0.8582 2.2084 0
M  V30 23 C 6.8073 1.5788 2.1913 0
M  V30 24 C 7.925 0.7061 2.7679 0
M  V30 25 C 7.1657 2.0654 0.7849 0
M  V30 26 H -4.0709 1.494 -0.1097 0
M  V30 27 H -4.9445 1.2128 -2.9465 0
M  V30 28 H -5.9753 0.8769 -1.5556 0
M  V30 29 H -2.9874 2.2782 -2.2341 0
M  V30 30 H -1.5793 1.2421 -1.9184 0
M  V30 31 H -1.9316 2.6038 -0.859 0
M  V30 32 H -1.7255 -1.1398 -0.58 0
M  V30 33 H -5.0166 -0.2185 -4.9679 0
M  V30 34 H -7.5097 -1.0855 -1.5523 0
M  V30 35 H -0.5462 -2.3118 1.0107 0
M  V30 36 H -1.1293 -1.2127 2.2752 0
M  V30 37 H -6.3805 -1.7526 -6.3395 0
M  V30 38 H -8.8615 -2.6151 -2.9405 0
M  V30 39 H 0.5162 0.5332 1.4746 0
M  V30 40 H 1.1038 -0.5901 0.2606 0
M  V30 41 H -8.3052 -2.951 -5.334 0
M  V30 42 H 1.1976 -1.0647 3.3004 0
M  V30 43 H 1.7587 -2.2097 2.0985 0
M  V30 44 H 3.8879 -1.8828 0.9366 0
M  V30 45 H 2.3625 1.159 3.5817 0
M  V30 46 H 6.0607 -0.753 0.8852 0
M  V30 47 H 4.5353 2.2935 3.534 0
M  V30 48 H 6.7322 2.4687 2.8305 0
M  V30 49 H 8.1096 -0.1822 2.1542 0
M  V30 50 H 8.8622 1.2702 2.8261 0
M  V30 51 H 7.6746 0.3669 3.7794 0
M  V30 52 H 7.3179 1.2329 0.0895 0
M  V30 53 H 6.3718 2.7007 0.3764 0
M  V30 54 H 8.0891 2.6544 0.8053 0
M  V30 END ATOM
M  V30 BEGIN BOND
M  V30 1 1 1 2
M  V30 2 1 1 3
M  V30 3 1 2 4
M  V30 4 1 2 5
M  V30 5 1 3 6
M  V30 6 2 4 7
M  V30 7 1 4 8
M  V30 8 2 6 9
M  V30 9 1 6 10
M  V30 10 1 8 11
M  V30 11 1 9 12
M  V30 12 2 10 13
M  V30 13 1 11 14
M  V30 14 2 12 15
M  V30 15 1 14 16
M  V30 16 1 16 17
M  V30 17 2 17 18
M  V30 18 1 17 19
M  V30 19 1 18 20
M  V30 20 2 19 21
M  V30 21 2 20 22
M  V30 22 1 22 23
M  V30 23 1 23 24
M  V30 24 1 23 25
M  V30 25 1 13 15
M  V30 26 1 21 22
M  V30 27 1 2 26
M  V30 28 1 3 27
M  V30 29 1 3 28
M  V30 30 1 5 29
M  V30 31 1 5 30
M  V30 32 1 5 31
M  V30 33 1 8 32
M  V30 34 1 9 33
M  V30 35 1 10 34
M  V30 36 1 11 35
M  V30 37 1 11 36
M  V30 38 1 12 37
M  V30 39 1 13 38
M  V30 40 1 14 39
M  V30 41 1 14 40
M  V30 42 1 15 41
M  V30 43 1 16 42
M  V30 44 1 16 43
M  V30 45 1 18 44
M  V30 46 1 19 45
M  V30 47 1 20 46
M  V30 48 1 21 47
M  V30 49 1 23 48
M  V30 50 1 24 49
M  V30 51 1 24 50
M  V30 52 1 24 51
M  V30 53 1 25 52
M  V30 54 1 25 53
M  V30 55 1 25 54
M  V30 END BOND
M  V30 BEGIN COLLECTION
M  V30 MDLV30/STEABS ATOMS=(1 2)
M  V30 END COLLECTION
M  V30 END CTAB
M  END
>  <level_0>
3833

>  <index>
3833

>  <NO.>
3834

>  <Name>
valproic acid

>  <SMILES>
CC(C)c1ccc(CCCNC(=O)[C@@H](C)SCc2ccccc2)cc1

>  <logBB>


>  <Class>
1

>  <MW>
355.2

>  <nHBAcc>
2

>  <nHBDon>
1

>  <SLogP>
5.18

>  <TopoPSA>
29.1

>  <MMFF94 Energy>
52.283

$$$$
CC(O)C1([SiH3])CCCCO1
Actelion Java MolfileCreator 2.0

  0  0  0  0  0  0              0 V3000
M  V30 BEGIN CTAB
M  V30 COUNTS 26 26 0 0 0
M  V30 BEGIN ATOM
M  V30 1 Si 0.4933 0.0 -2.7158 0
M  V30 2 C 0.0864 0.0108 -0.6664 0
M  V30 3 O 0.8935 -1.0139 -0.0391 0
M  V30 4 C 0.4474 1.4587 -0.1606 0
M  V30 5 C -1.4334 -0.3276 -0.553 0
M  V30 6 C 0.5187 -1.3796 1.2843 0
M  V30 7 O -0.2042 1.7659 1.0777 0
M  V30 8 C 1.9467 1.7093 0.0205 0
M  V30 9 C -1.8636 -0.7973 0.8326 0
M  V30 10 C -0.9167 -1.8675 1.3478 0
M  V30 11 H -0.3253 1.0748 -3.337 0
M  V30 12 H 1.9411 0.2721 -2.9196 0
M  V30 13 H 0.1103 -1.3278 -3.2664 0
M  V30 14 H 0.0547 2.1974 -0.8693 0
M  V30 15 H -2.0469 0.5255 -0.8682 0
M  V30 16 H -1.673 -1.1513 -1.2396 0
M  V30 17 H 1.1896 -2.186 1.5985 0
M  V30 18 H 0.6904 -0.5459 1.97 0
M  V30 19 H 0.3926 1.5252 1.8056 0
M  V30 20 H 2.1143 2.7303 0.3821 0
M  V30 21 H 2.3752 1.0426 0.7763 0
M  V30 22 H 2.5051 1.5844 -0.9098 0
M  V30 23 H -2.8838 -1.1958 0.7863 0
M  V30 24 H -1.8934 0.0422 1.5342 0
M  V30 25 H -1.1797 -2.1445 2.3741 0
M  V30 26 H -1.023 -2.764 0.7249 0
M  V30 END ATOM
M  V30 BEGIN BOND
M  V30 1 1 1 2
M  V30 2 1 2 3
M  V30 3 1 2 4
M  V30 4 1 2 5
M  V30 5 1 3 6
M  V30 6 1 4 7
M  V30 7 1 4 8
M  V30 8 1 5 9
M  V30 9 1 6 10
M  V30 10 1 9 10
M  V30 11 1 1 11
M  V30 12 1 1 12
M  V30 13 1 1 13
M  V30 14 1 4 14
M  V30 15 1 5 15
M  V30 16 1 5 16
M  V30 17 1 6 17
M  V30 18 1 6 18
M  V30 19 1 7 19
M  V30 20 1 8 20
M  V30 21 1 8 21
M  V30 22 1 8 22
M  V30 23 1 9 23
M  V30 24 1 9 24
M  V30 25 1 10 25
M  V30 26 1 10 26
M  V30 END BOND
M  V30 END CTAB
M  END
>  <level_0>
3835

>  <index>
3835

>  <NO.>
3836

>  <Name>
piroxicam

>  <SMILES>
CC(O)C1([SiH3])CCCCO1

>  <logBB>


>  <Class>
-1

>  <MW>
160.09

>  <nHBAcc>
2

>  <nHBDon>
1

>  <SLogP>
-0.37

>  <TopoPSA>
29.46

>  <MMFF94 Energy>
56.465

$$$$
CC1CCN(c2ccc([C@@H](C)NC(=O)CCSc3ccccc3)cc2)CC1
Actelion Java MolfileCreator 2.0

  0  0  0  0  0  0              0 V3000
M  V30 BEGIN CTAB
M  V30 COUNTS 57 59 0 0 0
M  V30 BEGIN ATOM
M  V30 1 S -2.0738 -5.1108 1.6747 0
M  V30 2 C -0.8507 -4.1357 0.8133 0
M  V30 3 C -3.4529 -3.9092 1.7297 0
M  V30 4 C -0.3859 -2.9233 1.3324 0
M  V30 5 C -0.3493 -4.5948 -0.4086 0
M  V30 6 C -4.0766 -3.689 0.3559 0
M  V30 7 C 0.5472 -2.1656 0.6226 0
M  V30 8 C 0.5838 -3.8358 -1.1182 0
M  V30 9 C -4.4459 -2.2328 0.2072 0
M  V30 10 C 1.0275 -2.6189 -0.6042 0
M  V30 11 O -5.5551 -1.8041 0.5061 0
M  V30 12 N -3.4156 -1.4456 -0.2478 0
M  V30 13 C -3.5489 -0.0091 -0.42 0 CFG=1
M  V30 14 C -2.1731 0.6272 -0.3444 0
M  V30 15 C -4.2991 0.3258 -1.7122 0
M  V30 16 C -1.749 1.2244 0.8486 0
M  V30 17 C -1.2698 0.5823 -1.4119 0
M  V30 18 C -0.4646 1.7737 0.9624 0
M  V30 19 C 0.0103 1.1377 -1.2891 0
M  V30 20 C 0.4441 1.7474 -0.1031 0
M  V30 21 N 1.7343 2.2658 -0.008 0
M  V30 22 C 2.1312 3.2543 -1.0191 0
M  V30 23 C 2.369 2.3938 1.3063 0
M  V30 24 C 3.651 3.2728 -1.1762 0
M  V30 25 C 3.8906 2.4093 1.1627 0
M  V30 26 C 4.3515 3.4831 0.1709 0
M  V30 27 C 5.869 3.4548 0.005 0
M  V30 28 H -3.1078 -2.9794 2.194 0
M  V30 29 H -4.2115 -4.3233 2.4036 0
M  V30 30 H -0.7388 -2.5558 2.2927 0
M  V30 31 H -0.6852 -5.5438 -0.8204 0
M  V30 32 H -4.9864 -4.2905 0.2446 0
M  V30 33 H -3.4153 -3.9621 -0.4739 0
M  V30 34 H 0.8994 -1.2181 1.0246 0
M  V30 35 H 0.9668 -4.1963 -2.0694 0
M  V30 36 H 1.7529 -2.0232 -1.1531 0
M  V30 37 H -2.5153 -1.8643 -0.4541 0
M  V30 38 H -4.1592 0.3699 0.4103 0
M  V30 39 H -3.8267 -0.126 -2.5911 0
M  V30 40 H -4.3476 1.4088 -1.8695 0
M  V30 41 H -5.3261 -0.0539 -1.6739 0
M  V30 42 H -2.4145 1.2655 1.7089 0
M  V30 43 H -1.5362 0.0979 -2.3478 0
M  V30 44 H -0.1965 2.2396 1.9064 0
M  V30 45 H 0.6911 1.05 -2.1322 0
M  V30 46 H 1.7738 4.2461 -0.7133 0
M  V30 47 H 1.6948 3.0496 -2.003 0
M  V30 48 H 2.0289 3.3134 1.7989 0
M  V30 49 H 2.1072 1.5467 1.9527 0
M  V30 50 H 3.9339 4.0682 -1.8759 0
M  V30 51 H 3.9789 2.3236 -1.6201 0
M  V30 52 H 4.23 1.4222 0.8219 0
M  V30 53 H 4.3461 2.5819 2.1451 0
M  V30 54 H 4.07 4.4691 0.564 0
M  V30 55 H 6.1979 4.2366 -0.6877 0
M  V30 56 H 6.3672 3.6261 0.9651 0
M  V30 57 H 6.2101 2.4903 -0.3861 0
M  V30 END ATOM
M  V30 BEGIN BOND
M  V30 1 1 1 2
M  V30 2 1 1 3
M  V30 3 2 2 4
M  V30 4 1 2 5
M  V30 5 1 3 6
M  V30 6 1 4 7
M  V30 7 2 5 8
M  V30 8 1 6 9
M  V30 9 2 7 10
M  V30 10 2 9 11
M  V30 11 1 9 12
M  V30 12 1 12 13
M  V30 13 1 13 14
M  V30 14 1 13 15
M  V30 15 2 14 16
M  V30 16 1 14 17
M  V30 17 1 16 18
M  V30 18 2 17 19
M  V30 19 2 18 20
M  V30 20 1 20 21
M  V30 21 1 21 22
M  V30 22 1 21 23
M  V30 23 1 22 24
M  V30 24 1 23 25
M  V30 25 1 24 26
M  V30 26 1 26 27
M  V30 27 1 8 10
M  V30 28 1 19 20
M  V30 29 1 25 26
M  V30 30 1 3 28
M  V30 31 1 3 29
M  V30 32 1 4 30
M  V30 33 1 5 31
M  V30 34 1 6 32
M  V30 35 1 6 33
M  V30 36 1 7 34
M  V30 37 1 8 35
M  V30 38 1 10 36
M  V30 39 1 12 37
M  V30 40 1 13 38
M  V30 41 1 15 39
M  V30 42 1 15 40
M  V30 43 1 15 41
M  V30 44 1 16 42
M  V30 45 1 17 43
M  V30 46 1 18 44
M  V30 47 1 19 45
M  V30 48 1 22 46
M  V30 49 1 22 47
M  V30 50 1 23 48
M  V30 51 1 23 49
M  V30 52 1 24 50
M  V30 53 1 24 51
M  V30 54 1 25 52
M  V30 55 1 25 53
M  V30 56 1 26 54
M  V30 57 1 27 55
M  V30 58 1 27 56
M  V30 59 1 27 57
M  V30 END BOND
M  V30 BEGIN COLLECTION
M  V30 MDLV30/STEABS ATOMS=(1 13)
M  V30 END COLLECTION
M  V30 END CTAB
M  END
>  <level_0>
3836

>  <index>
3836

>  <NO.>
3837

>  <Name>
famotidine

>  <SMILES>
CC1CCN(c2ccc([C@@H](C)NC(=O)CCSc3ccccc3)cc2)CC1

>  <logBB>


>  <Class>
1

>  <MW>
382.21

>  <nHBAcc>
3

>  <nHBDon>
1

>  <SLogP>
5.28

>  <TopoPSA>
32.34

>  <MMFF94 Energy>
9.7985

$$$$
CC[C@H](NC(=O)CCSc1ccccc1)c1ccc(C)c(C)c1
Actelion Java MolfileCreator 2.0

  0  0  0  0  0  0              0 V3000
M  V30 BEGIN CTAB
M  V30 COUNTS 48 49 0 0 0
M  V30 BEGIN ATOM
M  V30 1 S -4.9393 1.7505 0.7954 0
M  V30 2 C -4.6493 2.4702 -0.8112 0
M  V30 3 C -4.0199 0.1752 0.6398 0
M  V30 4 C -5.0021 1.8059 -1.9899 0
M  V30 5 C -4.0805 3.7458 -0.8893 0
M  V30 6 C -2.5156 0.4078 0.5946 0
M  V30 7 C -4.764 2.3989 -3.2321 0
M  V30 8 C -3.8427 4.3386 -2.1314 0
M  V30 9 C -1.7665 -0.9041 0.5025 0
M  V30 10 C -4.1814 3.6631 -3.3024 0
M  V30 11 O -2.3172 -1.9981 0.4569 0
M  V30 12 N -0.4009 -0.7388 0.4706 0
M  V30 13 C 0.5193 -1.8653 0.3937 0 CFG=2
M  V30 14 C 1.8653 -1.435 0.9543 0
M  V30 15 C 0.5915 -2.42 -1.0443 0
M  V30 16 C 2.7062 -0.5458 0.2645 0
M  V30 17 C 2.2744 -1.8996 2.2098 0
M  V30 18 C 1.4257 -3.6903 -1.1507 0
M  V30 19 C 3.9407 -0.138 0.7992 0
M  V30 20 C 3.4979 -1.5025 2.7522 0
M  V30 21 C 4.3423 -0.6253 2.0575 0
M  V30 22 C 4.8069 0.8086 0.0133 0
M  V30 23 C 5.6535 -0.2218 2.6748 0
M  V30 24 H -4.3662 -0.3801 -0.2376 0
M  V30 25 H -4.2752 -0.432 1.5157 0
M  V30 26 H -5.4768 0.8287 -1.9559 0
M  V30 27 H -3.8179 4.2879 0.0162 0
M  V30 28 H -2.1776 0.9293 1.4985 0
M  V30 29 H -2.2337 1.0112 -0.2759 0
M  V30 30 H -5.0414 1.8763 -4.1442 0
M  V30 31 H -3.3988 5.3295 -2.1834 0
M  V30 32 H -4.0006 4.1259 -4.2694 0
M  V30 33 H -0.0096 0.1919 0.5368 0
M  V30 34 H 0.1054 -2.6588 1.0306 0
M  V30 35 H 0.9835 -1.6679 -1.7392 0
M  V30 36 H -0.4215 -2.6509 -1.3968 0
M  V30 37 H 2.398 -0.1614 -0.706 0
M  V30 38 H 1.6416 -2.5773 2.7796 0
M  V30 39 H 2.4758 -3.5051 -0.9059 0
M  V30 40 H 1.3862 -4.0801 -2.1729 0
M  V30 41 H 1.0453 -4.4661 -0.4785 0
M  V30 42 H 3.7874 -1.886 3.7286 0
M  V30 43 H 4.3353 1.0947 -0.9328 0
M  V30 44 H 5.7654 0.3371 -0.2254 0
M  V30 45 H 4.9821 1.7265 0.5834 0
M  V30 46 H 6.4854 -0.5122 2.0255 0
M  V30 47 H 5.6786 0.8598 2.8404 0
M  V30 48 H 5.8083 -0.7077 3.6441 0
M  V30 END ATOM
M  V30 BEGIN BOND
M  V30 1 1 1 2
M  V30 2 1 1 3
M  V30 3 2 2 4
M  V30 4 1 2 5
M  V30 5 1 3 6
M  V30 6 1 4 7
M  V30 7 2 5 8
M  V30 8 1 6 9
M  V30 9 2 7 10
M  V30 10 2 9 11
M  V30 11 1 9 12
M  V30 12 1 12 13
M  V30 13 1 13 14
M  V30 14 1 13 15
M  V30 15 2 14 16
M  V30 16 1 14 17
M  V30 17 1 15 18
M  V30 18 1 16 19
M  V30 19 2 17 20
M  V30 20 2 19 21
M  V30 21 1 19 22
M  V30 22 1 21 23
M  V30 23 1 8 10
M  V30 24 1 20 21
M  V30 25 1 3 24
M  V30 26 1 3 25
M  V30 27 1 4 26
M  V30 28 1 5 27
M  V30 29 1 6 28
M  V30 30 1 6 29
M  V30 31 1 7 30
M  V30 32 1 8 31
M  V30 33 1 10 32
M  V30 34 1 12 33
M  V30 35 1 13 34
M  V30 36 1 15 35
M  V30 37 1 15 36
M  V30 38 1 16 37
M  V30 39 1 17 38
M  V30 40 1 18 39
M  V30 41 1 18 40
M  V30 42 1 18 41
M  V30 43 1 20 42
M  V30 44 1 22 43
M  V30 45 1 22 44
M  V30 46 1 22 45
M  V30 47 1 23 46
M  V30 48 1 23 47
M  V30 49 1 23 48
M  V30 END BOND
M  V30 BEGIN COLLECTION
M  V30 MDLV30/STEABS ATOMS=(1 13)
M  V30 END COLLECTION
M  V30 END CTAB
M  END
>  <level_0>
3882

>  <index>
3882

>  <NO.>
3883

>  <Name>
flurazepam

>  <SMILES>
CC[C@H](NC(=O)CCSc1ccccc1)c1ccc(C)c(C)c1

>  <logBB>


>  <Class>
1

>  <MW>
327.17

>  <nHBAcc>
2

>  <nHBDon>
1

>  <SLogP>
5.05

>  <TopoPSA>
29.1

>  <MMFF94 Energy>
8.5791

$$$$
CC[C@H](NC(=O)[C@@H](C)Sc1ccccc1)c1ccc(C)cc1C
Actelion Java MolfileCreator 2.0

  0  0  0  0  0  0              0 V3000
M  V30 BEGIN CTAB
M  V30 COUNTS 48 49 0 0 0
M  V30 BEGIN ATOM
M  V30 1 S -1.6718 1.6718 -1.1143 0
M  V30 2 C -2.7409 3.0899 -0.9595 0
M  V30 3 C -2.155 0.7282 0.3944 0 CFG=1
M  V30 4 C -4.1318 2.9596 -1.0201 0
M  V30 5 C -2.1771 4.3603 -0.8067 0
M  V30 6 C -1.6439 -0.7113 0.2873 0
M  V30 7 C -1.5931 1.3854 1.6503 0
M  V30 8 C -4.9504 4.0853 -0.9039 0
M  V30 9 C -2.9962 5.4855 -0.6903 0
M  V30 10 O -2.3695 -1.6702 0.5441 0
M  V30 11 N -0.3145 -0.8407 -0.0467 0
M  V30 12 C -4.3824 5.347 -0.7359 0
M  V30 13 C 0.3693 -2.1182 -0.1392 0 CFG=2
M  V30 14 C 1.7779 -2.035 0.4515 0
M  V30 15 C 0.3792 -2.7055 -1.5654 0
M  V30 16 C 2.7848 -1.124 0.0576 0
M  V30 17 C 2.0883 -2.9708 1.4633 0
M  V30 18 C -1.0051 -3.094 -2.0697 0
M  V30 19 C 4.0389 -1.1635 0.7058 0
M  V30 20 C 2.6037 -0.0423 -0.9732 0
M  V30 21 C 3.3394 -3.0028 2.081 0
M  V30 22 C 4.3224 -2.0875 1.717 0
M  V30 23 C 5.6787 -2.1277 2.3549 0
M  V30 24 H -3.2474 0.6765 0.453 0
M  V30 25 H -4.5922 1.9858 -1.1681 0
M  V30 26 H -1.0975 4.4853 -0.7747 0
M  V30 27 H -2.0242 2.3786 1.8133 0
M  V30 28 H -0.5024 1.4857 1.6119 0
M  V30 29 H -1.827 0.7792 2.5331 0
M  V30 30 H -6.0312 3.9774 -0.9509 0
M  V30 31 H -2.5519 6.47 -0.5677 0
M  V30 32 H 0.1846 0.0025 -0.2907 0
M  V30 33 H -5.02 6.2233 -0.6479 0
M  V30 34 H -0.2067 -2.8173 0.4814 0
M  V30 35 H 1.0084 -3.6049 -1.5811 0
M  V30 36 H 0.8173 -2.0085 -2.2851 0
M  V30 37 H 1.342 -3.6966 1.785 0
M  V30 38 H -1.4952 -3.7901 -1.3819 0
M  V30 39 H -0.924 -3.585 -3.0449 0
M  V30 40 H -1.6452 -2.2157 -2.1948 0
M  V30 41 H 4.8123 -0.4532 0.414 0
M  V30 42 H 2.2568 0.8765 -0.4895 0
M  V30 43 H 1.9001 -0.3161 -1.7583 0
M  V30 44 H 3.5517 0.1739 -1.479 0
M  V30 45 H 3.5337 -3.7455 2.8513 0
M  V30 46 H 6.1144 -1.1244 2.4085 0
M  V30 47 H 5.6187 -2.5099 3.3794 0
M  V30 48 H 6.3456 -2.7735 1.7755 0
M  V30 END ATOM
M  V30 BEGIN BOND
M  V30 1 1 1 2
M  V30 2 1 1 3
M  V30 3 2 2 4
M  V30 4 1 2 5
M  V30 5 1 3 6
M  V30 6 1 3 7
M  V30 7 1 4 8
M  V30 8 2 5 9
M  V30 9 2 6 10
M  V30 10 1 6 11
M  V30 11 2 8 12
M  V30 12 1 11 13
M  V30 13 1 13 14
M  V30 14 1 13 15
M  V30 15 2 14 16
M  V30 16 1 14 17
M  V30 17 1 15 18
M  V30 18 1 16 19
M  V30 19 1 16 20
M  V30 20 2 17 21
M  V30 21 2 19 22
M  V30 22 1 22 23
M  V30 23 1 9 12
M  V30 24 1 21 22
M  V30 25 1 3 24
M  V30 26 1 4 25
M  V30 27 1 5 26
M  V30 28 1 7 27
M  V30 29 1 7 28
M  V30 30 1 7 29
M  V30 31 1 8 30
M  V30 32 1 9 31
M  V30 33 1 11 32
M  V30 34 1 12 33
M  V30 35 1 13 34
M  V30 36 1 15 35
M  V30 37 1 15 36
M  V30 38 1 17 37
M  V30 39 1 18 38
M  V30 40 1 18 39
M  V30 41 1 18 40
M  V30 42 1 19 41
M  V30 43 1 20 42
M  V30 44 1 20 43
M  V30 45 1 20 44
M  V30 46 1 21 45
M  V30 47 1 23 46
M  V30 48 1 23 47
M  V30 49 1 23 48
M  V30 END BOND
M  V30 BEGIN COLLECTION
M  V30 MDLV30/STEABS ATOMS=(2 3 13)
M  V30 END COLLECTION
M  V30 END CTAB
M  END
>  <level_0>
3886

>  <index>
3886

>  <NO.>
3887

>  <Name>
carbamazepine

>  <SMILES>
CC[C@H](NC(=O)[C@@H](C)Sc1ccccc1)c1ccc(C)cc1C

>  <logBB>


>  <Class>
1

>  <MW>
327.17

>  <nHBAcc>
2

>  <nHBDon>
1

>  <SLogP>
5.05

>  <TopoPSA>
29.1

>  <MMFF94 Energy>
43.443

$$$$
CC[C@H](NC(=O)c1ccc(CSc2ccc(Cl)cc2)cc1)c1ccc(C)c(C)c1
Actelion Java MolfileCreator 2.0

  0  0  0  0  0  0              0 V3000
M  V30 BEGIN CTAB
M  V30 COUNTS 55 57 0 0 0
M  V30 BEGIN ATOM
M  V30 1 Cl 1.0478 11.2475 -0.6447 0
M  V30 2 C 0.4405 9.6767 -0.2957 0
M  V30 3 C 0.1354 9.3276 1.0178 0
M  V30 4 C 0.2516 8.7619 -1.3295 0
M  V30 5 C -0.358 8.0507 1.2996 0
M  V30 6 C -0.2415 7.485 -1.0461 0
M  V30 7 C -0.538 7.1193 0.2714 0
M  V30 8 S -1.1803 5.5048 0.6657 0
M  V30 9 C 0.2078 4.4716 0.0921 0
M  V30 10 C -2.0E-4 3.0216 0.4542 0
M  V30 11 C -0.751 2.1786 -0.3787 0
M  V30 12 C 0.5248 2.5043 1.6467 0
M  V30 13 C -0.9558 0.8378 -0.0382 0
M  V30 14 C 0.322 1.1648 1.9879 0
M  V30 15 C -0.4063 0.3215 1.1412 0
M  V30 16 C -0.596 -1.0978 1.5523 0
M  V30 17 O -0.5559 -1.4029 2.7389 0
M  V30 18 N -0.7798 -2.01 0.5379 0
M  V30 19 C -0.973 -3.4303 0.7902 0 CFG=2
M  V30 20 C -0.1573 -4.2114 -0.2311 0
M  V30 21 C -2.4699 -3.8038 0.7865 0
M  V30 22 C 1.1488 -4.6101 0.0993 0
M  V30 23 C -0.6332 -4.5002 -1.5155 0
M  V30 24 C -3.2285 -3.2558 1.9891 0
M  V30 25 C 1.9608 -5.3063 -0.8119 0
M  V30 26 C 0.1627 -5.1931 -2.4306 0
M  V30 27 C 1.4587 -5.6058 -2.0919 0
M  V30 28 C 3.3483 -5.714 -0.3976 0
M  V30 29 C 2.2845 -6.3496 -3.1051 0
M  V30 30 H 0.2743 10.0417 1.8253 0
M  V30 31 H 0.4785 9.0372 -2.356 0
M  V30 32 H -0.5997 7.7902 2.328 0
M  V30 33 H -0.4032 6.7891 -1.8654 0
M  V30 34 H 1.1415 4.8338 0.5378 0
M  V30 35 H 0.3162 4.5626 -0.9943 0
M  V30 36 H -1.1959 2.5681 -1.2925 0
M  V30 37 H 1.0891 3.1424 2.324 0
M  V30 38 H -1.5722 0.2244 -0.6882 0
M  V30 39 H 0.7326 0.7795 2.9194 0
M  V30 40 H -0.6861 -1.723 -0.425 0
M  V30 41 H -0.5799 -3.6689 1.7872 0
M  V30 42 H -2.5738 -4.8962 0.7906 0
M  V30 43 H -2.9606 -3.4376 -0.1234 0
M  V30 44 H 1.5406 -4.3681 1.0873 0
M  V30 45 H -1.6277 -4.191 -1.8259 0
M  V30 46 H -2.7671 -3.5792 2.9273 0
M  V30 47 H -4.2612 -3.6193 1.9779 0
M  V30 48 H -3.263 -2.1625 1.9759 0
M  V30 49 H -0.2401 -5.4087 -3.4181 0
M  V30 50 H 3.5758 -5.389 0.6232 0
M  V30 51 H 4.092 -5.26 -1.06 0
M  V30 52 H 3.4487 -6.8034 -0.4265 0
M  V30 53 H 3.1839 -5.7782 -3.3552 0
M  V30 54 H 1.7285 -6.5143 -4.0341 0
M  V30 55 H 2.571 -7.3317 -2.7161 0
M  V30 END ATOM
M  V30 BEGIN BOND
M  V30 1 1 1 2
M  V30 2 2 2 3
M  V30 3 1 2 4
M  V30 4 1 3 5
M  V30 5 2 4 6
M  V30 6 2 5 7
M  V30 7 1 7 8
M  V30 8 1 8 9
M  V30 9 1 9 10
M  V30 10 2 10 11
M  V30 11 1 10 12
M  V30 12 1 11 13
M  V30 13 2 12 14
M  V30 14 2 13 15
M  V30 15 1 15 16
M  V30 16 2 16 17
M  V30 17 1 16 18
M  V30 18 1 18 19
M  V30 19 1 19 20
M  V30 20 1 19 21
M  V30 21 2 20 22
M  V30 22 1 20 23
M  V30 23 1 21 24
M  V30 24 1 22 25
M  V30 25 2 23 26
M  V30 26 2 25 27
M  V30 27 1 25 28
M  V30 28 1 27 29
M  V30 29 1 6 7
M  V30 30 1 14 15
M  V30 31 1 26 27
M  V30 32 1 3 30
M  V30 33 1 4 31
M  V30 34 1 5 32
M  V30 35 1 6 33
M  V30 36 1 9 34
M  V30 37 1 9 35
M  V30 38 1 11 36
M  V30 39 1 12 37
M  V30 40 1 13 38
M  V30 41 1 14 39
M  V30 42 1 18 40
M  V30 43 1 19 41
M  V30 44 1 21 42
M  V30 45 1 21 43
M  V30 46 1 22 44
M  V30 47 1 23 45
M  V30 48 1 24 46
M  V30 49 1 24 47
M  V30 50 1 24 48
M  V30 51 1 26 49
M  V30 52 1 28 50
M  V30 53 1 28 51
M  V30 54 1 28 52
M  V30 55 1 29 53
M  V30 56 1 29 54
M  V30 57 1 29 55
M  V30 END BOND
M  V30 BEGIN COLLECTION
M  V30 MDLV30/STEABS ATOMS=(1 19)
M  V30 END COLLECTION
M  V30 END CTAB
M  END
>  <level_0>
3889

>  <index>
3889

>  <NO.>
3890

>  <Name>
mannitol

>  <SMILES>
CC[C@H](NC(=O)c1ccc(CSc2ccc(Cl)cc2)cc1)c1ccc(C)c(C)c1

>  <logBB>


>  <Class>
-1

>  <MW>
423.14

>  <nHBAcc>
2

>  <nHBDon>
1

>  <SLogP>
7.13

>  <TopoPSA>
29.1

>  <MMFF94 Energy>
52.489

$$$$
CNc1nc(Oc2cccc(Cl)c2F)c(Cl)cc1Cl
Actelion Java MolfileCreator 2.0

  0  0  0  0  0  0              0 V3000
M  V30 BEGIN CTAB
M  V30 COUNTS 27 28 0 0 0
M  V30 BEGIN ATOM
M  V30 1 Cl -1.1698 -1.1698 4.015 0
M  V30 2 C -0.3566 -0.115 2.924 0
M  V30 3 C -0.1576 -0.4319 1.5846 0
M  V30 4 C 0.1223 1.1032 3.387 0
M  V30 5 O -0.6121 -1.6666 1.1324 0
M  V30 6 N 0.5035 0.3732 0.7116 0
M  V30 7 C 0.784 1.9501 2.4987 0
M  V30 8 C -0.8533 -1.7593 -0.2169 0
M  V30 9 C 0.9553 1.5667 1.1573 0
M  V30 10 Cl 1.369 3.4669 3.088 0
M  V30 11 C -1.8522 -1.0057 -0.836 0
M  V30 12 C -0.1113 -2.6853 -0.9522 0
M  V30 13 N 1.6462 2.3793 0.2733 0
M  V30 14 F -2.5969 -0.1578 -0.1073 0
M  V30 15 C -2.0816 -1.1482 -2.2022 0
M  V30 16 C -0.3441 -2.8286 -2.321 0
M  V30 17 C 1.822 1.9679 -1.0971 0
M  V30 18 Cl -3.2992 -0.219 -2.9898 0
M  V30 19 C -1.3265 -2.0569 -2.9478 0
M  V30 20 H -0.0149 1.3923 4.4245 0
M  V30 21 H 0.6526 -3.2832 -0.462 0
M  V30 22 H 1.713 3.3633 0.5022 0
M  V30 23 H 0.2394 -3.5411 -2.8995 0
M  V30 24 H 0.8583 1.8421 -1.602 0
M  V30 25 H 2.3844 2.7348 -1.6388 0
M  V30 26 H 2.3895 1.0336 -1.1625 0
M  V30 27 H -1.5029 -2.1728 -4.0143 0
M  V30 END ATOM
M  V30 BEGIN BOND
M  V30 1 1 1 2
M  V30 2 2 2 3
M  V30 3 1 2 4
M  V30 4 1 3 5
M  V30 5 1 3 6
M  V30 6 2 4 7
M  V30 7 1 5 8
M  V30 8 2 6 9
M  V30 9 1 7 10
M  V30 10 2 8 11
M  V30 11 1 8 12
M  V30 12 1 9 13
M  V30 13 1 11 14
M  V30 14 1 11 15
M  V30 15 2 12 16
M  V30 16 1 13 17
M  V30 17 1 15 18
M  V30 18 2 15 19
M  V30 19 1 7 9
M  V30 20 1 16 19
M  V30 21 1 4 20
M  V30 22 1 12 21
M  V30 23 1 13 22
M  V30 24 1 16 23
M  V30 25 1 17 24
M  V30 26 1 17 25
M  V30 27 1 17 26
M  V30 28 1 19 27
M  V30 END BOND
M  V30 END CTAB
M  END
>  <level_0>
3903

>  <index>
3903

>  <NO.>
3904

>  <Name>
ethionamide

>  <SMILES>
CNc1nc(Oc2cccc(Cl)c2F)c(Cl)cc1Cl

>  <logBB>


>  <Class>
1

>  <MW>
319.97

>  <nHBAcc>
3

>  <nHBDon>
1

>  <SLogP>
5.01

>  <TopoPSA>
34.15

>  <MMFF94 Energy>
48.432

$$$$
COC(=O)C[C@H](C1=C(O)C(=O)C([C@@H](CC(=O)OC)c2ccc(OC)c(OCC(N)=O)c2)=C(O)C1=O)c1ccc(OC)c(OCC(N)=O)c1
Actelion Java MolfileCreator 2.0

  0  0  0  0  0  0              0 V3000
M  V30 BEGIN CTAB
M  V30 COUNTS 82 84 0 0 0
M  V30 BEGIN ATOM
M  V30 1 O -1.5134 -2.9488 0.0 0
M  V30 2 C -1.7732 -1.7893 -0.3149 0
M  V30 3 C -2.279 -0.8877 0.757 0
M  V30 4 C -1.5617 -1.2469 -1.6807 0
M  V30 5 O -2.2864 -1.4325 2.0308 0
M  V30 6 C -2.6562 0.3769 0.5202 0
M  V30 7 C -1.9947 -0.0035 -1.9325 0
M  V30 8 C -0.876 -2.1982 -2.6568 0 CFG=2
M  V30 9 C -2.6169 0.8549 -0.8865 0
M  V30 10 C -3.1159 1.4143 1.5447 0 CFG=2
M  V30 11 O -1.8676 0.5818 -3.1822 0
M  V30 12 C 0.6425 -2.0663 -2.5039 0
M  V30 13 C -1.2888 -2.1315 -4.1424 0
M  V30 14 O -3.0486 1.952 -1.2362 0
M  V30 15 C -1.9646 2.375 1.8582 0
M  V30 16 C -3.7348 0.8636 2.8448 0
M  V30 17 C 1.3575 -3.0332 -1.7756 0
M  V30 18 C 1.3429 -0.9667 -3.0231 0
M  V30 19 C -2.761 -2.3988 -4.3391 0
M  V30 20 C -0.7554 1.9163 2.3995 0
M  V30 21 C -2.097 3.7441 1.5839 0
M  V30 22 C -4.4889 1.9362 3.5959 0
M  V30 23 C 2.7379 -2.9199 -1.5753 0
M  V30 24 C 2.7156 -0.8342 -2.8077 0
M  V30 25 O -3.573 -2.6081 -3.4485 0
M  V30 26 O -3.0522 -2.3741 -5.6712 0
M  V30 27 C 0.2988 2.8068 2.6182 0
M  V30 28 C -1.0485 4.6376 1.8396 0
M  V30 29 O -5.1028 2.8584 3.0765 0
M  V30 30 O -4.4269 1.6973 4.936 0
M  V30 31 O 3.2929 -3.9377 -0.8484 0
M  V30 32 C 3.4048 -1.7914 -2.0603 0
M  V30 33 C -4.4271 -2.6178 -5.9711 0
M  V30 34 O 1.4786 2.3343 3.1346 0
M  V30 35 C 0.1604 4.1773 2.3626 0
M  V30 36 C -5.1219 2.6578 5.732 0
M  V30 37 C 4.5984 -4.3303 -1.2487 0
M  V30 38 O 4.7435 -1.5932 -1.842 0
M  V30 39 C 2.2137 1.5998 2.1516 0
M  V30 40 O 1.2575 4.9563 2.6295 0
M  V30 41 C 4.8667 -5.7931 -0.8948 0
M  V30 42 C 4.9256 -0.741 -0.7055 0
M  V30 43 C 3.6659 2.0665 2.1023 0
M  V30 44 C 1.0879 6.3638 2.5084 0
M  V30 45 O 4.042 -6.5771 -0.4378 0
M  V30 46 N 6.1488 -6.2122 -1.134 0
M  V30 47 O 4.5875 1.3603 1.7027 0
M  V30 48 N 3.8789 3.363 2.4714 0
M  V30 49 H -1.9808 -2.3618 1.9155 0
M  V30 50 H -1.1447 -3.2228 -2.3598 0
M  V30 51 H -3.9152 1.9893 1.0556 0
M  V30 52 H -2.2884 1.4671 -3.0926 0
M  V30 53 H -1.0431 -1.1714 -4.6051 0
M  V30 54 H -0.7421 -2.9068 -4.6954 0
M  V30 55 H -4.4574 0.068 2.628 0
M  V30 56 H -2.9625 0.4598 3.5096 0
M  V30 57 H 0.8396 -3.8925 -1.3495 0
M  V30 58 H 0.8265 -0.19 -3.5833 0
M  V30 59 H -0.6209 0.8666 2.6491 0
M  V30 60 H -3.0259 4.1299 1.1635 0
M  V30 61 H 3.2454 0.026 -3.2078 0
M  V30 62 H -1.2124 5.6845 1.6061 0
M  V30 63 H -4.5499 -2.5744 -7.0567 0
M  V30 64 H -4.7233 -3.6141 -5.6282 0
M  V30 65 H -5.0602 -1.8473 -5.5197 0
M  V30 66 H -4.992 2.3849 6.7829 0
M  V30 67 H -4.7035 3.6577 5.5798 0
M  V30 68 H -6.1915 2.6448 5.5002 0
M  V30 69 H 5.3411 -3.7284 -0.7137 0
M  V30 70 H 4.7399 -4.2366 -2.3331 0
M  V30 71 H 1.807 1.7011 1.1364 0
M  V30 72 H 2.2029 0.5432 2.4392 0
M  V30 73 H 4.5623 0.2708 -0.9142 0
M  V30 74 H 5.9989 -0.6813 -0.5023 0
M  V30 75 H 4.4333 -1.1514 0.1832 0
M  V30 76 H 0.9051 6.6486 1.4673 0
M  V30 77 H 2.0214 6.8398 2.8237 0
M  V30 78 H 0.2907 6.7266 3.1659 0
M  V30 79 H 6.3727 -7.1741 -0.915 0
M  V30 80 H 6.8697 -5.6117 -1.5079 0
M  V30 81 H 4.8143 3.7408 2.4566 0
M  V30 82 H 3.1039 3.9356 2.7989 0
M  V30 END ATOM
M  V30 BEGIN BOND
M  V30 1 2 1 2
M  V30 2 1 2 3
M  V30 3 1 2 4
M  V30 4 1 3 5
M  V30 5 2 3 6
M  V30 6 2 4 7
M  V30 7 1 4 8
M  V30 8 1 6 9
M  V30 9 1 6 10
M  V30 10 1 7 11
M  V30 11 1 8 12
M  V30 12 1 8 13
M  V30 13 2 9 14
M  V30 14 1 10 15
M  V30 15 1 10 16
M  V30 16 2 12 17
M  V30 17 1 12 18
M  V30 18 1 13 19
M  V30 19 2 15 20
M  V30 20 1 15 21
M  V30 21 1 16 22
M  V30 22 1 17 23
M  V30 23 2 18 24
M  V30 24 2 19 25
M  V30 25 1 19 26
M  V30 26 1 20 27
M  V30 27 2 21 28
M  V30 28 2 22 29
M  V30 29 1 22 30
M  V30 30 1 23 31
M  V30 31 2 23 32
M  V30 32 1 26 33
M  V30 33 1 27 34
M  V30 34 2 27 35
M  V30 35 1 30 36
M  V30 36 1 31 37
M  V30 37 1 32 38
M  V30 38 1 34 39
M  V30 39 1 35 40
M  V30 40 1 37 41
M  V30 41 1 38 42
M  V30 42 1 39 43
M  V30 43 1 40 44
M  V30 44 2 41 45
M  V30 45 1 41 46
M  V30 46 2 43 47
M  V30 47 1 43 48
M  V30 48 1 7 9
M  V30 49 1 24 32
M  V30 50 1 28 35
M  V30 51 1 5 49
M  V30 52 1 8 50
M  V30 53 1 10 51
M  V30 54 1 11 52
M  V30 55 1 13 53
M  V30 56 1 13 54
M  V30 57 1 16 55
M  V30 58 1 16 56
M  V30 59 1 17 57
M  V30 60 1 18 58
M  V30 61 1 20 59
M  V30 62 1 21 60
M  V30 63 1 24 61
M  V30 64 1 28 62
M  V30 65 1 33 63
M  V30 66 1 33 64
M  V30 67 1 33 65
M  V30 68 1 36 66
M  V30 69 1 36 67
M  V30 70 1 36 68
M  V30 71 1 37 69
M  V30 72 1 37 70
M  V30 73 1 39 71
M  V30 74 1 39 72
M  V30 75 1 42 73
M  V30 76 1 42 74
M  V30 77 1 42 75
M  V30 78 1 44 76
M  V30 79 1 44 77
M  V30 80 1 44 78
M  V30 81 1 46 79
M  V30 82 1 46 80
M  V30 83 1 48 81
M  V30 84 1 48 82
M  V30 END BOND
M  V30 BEGIN COLLECTION
M  V30 MDLV30/STEABS ATOMS=(2 8 10)
M  V30 END COLLECTION
M  V30 END CTAB
M  END
>  <level_0>
3914

>  <index>
3914

>  <NO.>
3915

>  <Name>
lomustine

>  <SMILES>
COC(=O)C[C@H](C1=C(O)C(=O)C([C@@H](CC(=O)OC)c2ccc(OC)c(OCC(N)=O)c2)=C(O)C1=O)c1ccc(OC)c(OCC(N)=O)c1

>  <logBB>


>  <Class>
1

>  <MW>
670.2

>  <nHBAcc>
14

>  <nHBDon>
4

>  <SLogP>
1.2

>  <TopoPSA>
250.3

>  <MMFF94 Energy>
80.202

$$$$
COc1cc(/C=C2/SC(=O)N(CC(=O)Nc3ccc(F)cc3F)C2=O)ccc1Oc1ccc([N+](=O)[O-])cc1[N+](=O)[O-]
Actelion Java MolfileCreator 2.0

  0  0  0  0  0  0              0 V3000
M  V30 BEGIN CTAB
M  V30 COUNTS 57 60 0 0 0
M  V30 BEGIN ATOM
M  V30 1 S -3.1144 -1.5563 2.6222 0
M  V30 2 C -4.2065 -1.4743 1.2612 0
M  V30 3 C -1.9956 -0.4465 1.9026 0
M  V30 4 O -5.2405 -2.121 1.1788 0
M  V30 5 N -3.7248 -0.608 0.323 0
M  V30 6 C -2.5338 0.0236 0.5899 0
M  V30 7 C -0.8474 -0.1022 2.504 0
M  V30 8 C -4.4486 -0.3972 -0.9131 0
M  V30 9 O -2.0105 0.8655 -0.1224 0
M  V30 10 C 0.1736 0.8161 1.9892 0
M  V30 11 C -4.1031 -1.5507 -1.8552 0
M  V30 12 C 0.481 1.9731 2.7197 0
M  V30 13 C 0.8735 0.5374 0.8102 0
M  V30 14 O -3.0626 -1.5497 -2.5067 0
M  V30 15 N -5.0092 -2.5957 -1.7876 0
M  V30 16 C 1.4745 2.8498 2.2733 0
M  V30 17 C 1.8556 1.4152 0.3491 0
M  V30 18 C -4.9913 -3.7902 -2.5401 0
M  V30 19 O 1.8225 4.0108 2.913 0
M  V30 20 C 2.164 2.5622 1.0863 0
M  V30 21 C -5.8788 -4.8065 -2.1533 0
M  V30 22 C -4.1697 -4.0063 -3.6486 0
M  V30 23 C 1.6248 4.0319 4.322 0
M  V30 24 O 3.121 3.4667 0.666 0
M  V30 25 F -6.6908 -4.6068 -1.103 0
M  V30 26 C -5.9464 -6.0173 -2.8315 0
M  V30 27 C -4.2305 -5.2229 -4.3378 0
M  V30 28 C 4.3294 2.9426 0.2803 0
M  V30 29 C -5.1143 -6.2143 -3.9223 0
M  V30 30 C 5.2378 2.3436 1.1577 0
M  V30 31 C 4.6783 3.0823 -1.0666 0
M  V30 32 F -5.1652 -7.3737 -4.5901 0
M  V30 33 N 4.9495 2.2638 2.5715 0 CHG=1
M  V30 34 C 6.4638 1.8317 0.7155 0
M  V30 35 C 5.8989 2.5827 -1.5338 0
M  V30 36 O 4.6827 1.1419 3.0222 0
M  V30 37 O 5.0546 3.3062 3.2295 0 CHG=-1
M  V30 38 C 6.7835 1.9543 -0.6421 0
M  V30 39 N 8.0639 1.4308 -1.1369 0 CHG=1
M  V30 40 O 8.2971 1.5321 -2.3488 0
M  V30 41 O 8.8303 0.919 -0.3097 0 CHG=-1
M  V30 42 H -0.6066 -0.5151 3.4828 0
M  V30 43 H -5.5261 -0.3714 -0.7183 0
M  V30 44 H -4.1535 0.5432 -1.3888 0
M  V30 45 H -0.0779 2.1873 3.6254 0
M  V30 46 H 0.6457 -0.3523 0.2269 0
M  V30 47 H -5.7079 -2.5718 -1.0429 0
M  V30 48 H 2.3554 1.1976 -0.5895 0
M  V30 49 H -3.4767 -3.2498 -4.0048 0
M  V30 50 H 0.5661 4.1723 4.5617 0
M  V30 51 H 2.1736 4.8892 4.7235 0
M  V30 52 H 2.02 3.1286 4.7996 0
M  V30 53 H -6.6361 -6.7903 -2.5153 0
M  V30 54 H -3.592 -5.3993 -5.1987 0
M  V30 55 H 3.9934 3.5745 -1.7554 0
M  V30 56 H 7.1478 1.3623 1.4204 0
M  V30 57 H 6.1447 2.694 -2.5893 0
M  V30 END ATOM
M  V30 BEGIN BOND
M  V30 1 1 1 2
M  V30 2 1 1 3
M  V30 3 2 2 4
M  V30 4 1 2 5
M  V30 5 1 3 6
M  V30 6 2 3 7
M  V30 7 1 5 8
M  V30 8 2 6 9
M  V30 9 1 7 10
M  V30 10 1 8 11
M  V30 11 2 10 12
M  V30 12 1 10 13
M  V30 13 2 11 14
M  V30 14 1 11 15
M  V30 15 1 12 16
M  V30 16 2 13 17
M  V30 17 1 15 18
M  V30 18 1 16 19
M  V30 19 2 16 20
M  V30 20 2 18 21
M  V30 21 1 18 22
M  V30 22 1 19 23
M  V30 23 1 20 24
M  V30 24 1 21 25
M  V30 25 1 21 26
M  V30 26 2 22 27
M  V30 27 1 24 28
M  V30 28 2 26 29
M  V30 29 2 28 30
M  V30 30 1 28 31
M  V30 31 1 29 32
M  V30 32 1 30 33
M  V30 33 1 30 34
M  V30 34 2 31 35
M  V30 35 2 33 36
M  V30 36 1 33 37
M  V30 37 2 34 38
M  V30 38 1 38 39
M  V30 39 2 39 40
M  V30 40 1 39 41
M  V30 41 1 5 6
M  V30 42 1 17 20
M  V30 43 1 27 29
M  V30 44 1 35 38
M  V30 45 1 7 42
M  V30 46 1 8 43
M  V30 47 1 8 44
M  V30 48 1 12 45
M  V30 49 1 13 46
M  V30 50 1 15 47
M  V30 51 1 17 48
M  V30 52 1 22 49
M  V30 53 1 23 50
M  V30 54 1 23 51
M  V30 55 1 23 52
M  V30 56 1 26 53
M  V30 57 1 27 54
M  V30 58 1 31 55
M  V30 59 1 34 56
M  V30 60 1 35 57
M  V30 END BOND
M  V30 END CTAB
M  END
>  <level_0>
3942

>  <index>
3942

>  <NO.>
3943

>  <Name>
minocycline

>  <SMILES>
COc1cc(/C=C2/SC(=O)N(CC(=O)Nc3ccc(F)cc3F)C2=O)ccc1Oc1ccc([N+](=O)[O-])cc1[N+](=O)[O-]

>  <logBB>


>  <Class>
1

>  <MW>
586.06

>  <nHBAcc>
10

>  <nHBDon>
1

>  <SLogP>
5.26

>  <TopoPSA>
171.22

>  <MMFF94 Energy>
71.163

$$$$
COc1ccc(NC(=O)/C(=C/c2ccco2)c2ccccc2)cc1Cl
Actelion Java MolfileCreator 2.0

  0  0  0  0  0  0              0 V3000
M  V30 BEGIN CTAB
M  V30 COUNTS 41 43 0 0 0
M  V30 BEGIN ATOM
M  V30 1 Cl 2.0119 -3.543 4.3496 0
M  V30 2 C 2.3028 -2.2392 3.247 0
M  V30 3 C 3.5502 -1.5969 3.1968 0
M  V30 4 C 1.2538 -1.85 2.4035 0
M  V30 5 O 4.5156 -2.0455 4.0589 0
M  V30 6 C 3.7269 -0.5585 2.2803 0
M  V30 7 C 1.4325 -0.8077 1.4957 0
M  V30 8 C 5.7773 -1.3924 4.0384 0
M  V30 9 C 2.6776 -0.1713 1.437 0
M  V30 10 N 0.4399 -0.3573 0.6002 0
M  V30 11 C -0.9065 -0.6745 0.6088 0
M  V30 12 O -1.4555 -1.4001 1.4333 0
M  V30 13 C -1.7092 -0.0296 -0.5095 0
M  V30 14 C -1.0582 0.8532 -1.4948 0
M  V30 15 C -3.0262 -0.3274 -0.5201 0
M  V30 16 C -0.4881 0.3152 -2.6561 0
M  V30 17 C -0.966 2.2308 -1.2551 0
M  V30 18 C -3.9868 0.1464 -1.4619 0
M  V30 19 C 0.1697 1.1462 -3.564 0
M  V30 20 C -0.3074 3.0585 -2.1656 0
M  V30 21 O -3.7241 0.9807 -2.5253 0
M  V30 22 C -5.3508 -0.1336 -1.4954 0
M  V30 23 C 0.2614 2.5158 -3.3172 0
M  V30 24 C -4.877 1.2123 -3.1949 0
M  V30 25 C -5.9158 0.5464 -2.5999 0
M  V30 26 H 0.3121 -2.3852 2.4715 0
M  V30 27 H 4.6683 -0.0263 2.1923 0
M  V30 28 H 6.2674 -1.512 3.0667 0
M  V30 29 H 6.4125 -1.8683 4.7917 0
M  V30 30 H 5.6795 -0.3351 4.3058 0
M  V30 31 H 2.8509 0.6428 0.7364 0
M  V30 32 H 0.7583 0.2931 -0.107 0
M  V30 33 H -3.4244 -0.9888 0.2476 0
M  V30 34 H -0.5615 -0.7502 -2.8635 0
M  V30 35 H -1.4151 2.6666 -0.365 0
M  V30 36 H 0.6025 0.7265 -4.4686 0
M  V30 37 H -0.2471 4.1283 -1.9814 0
M  V30 38 H -5.8746 -0.7652 -0.7904 0
M  V30 39 H 0.7665 3.163 -4.03 0
M  V30 40 H -4.794 1.8594 -4.0565 0
M  V30 41 H -6.948 0.5491 -2.9194 0
M  V30 END ATOM
M  V30 BEGIN BOND
M  V30 1 1 1 2
M  V30 2 2 2 3
M  V30 3 1 2 4
M  V30 4 1 3 5
M  V30 5 1 3 6
M  V30 6 2 4 7
M  V30 7 1 5 8
M  V30 8 2 6 9
M  V30 9 1 7 10
M  V30 10 1 10 11
M  V30 11 2 11 12
M  V30 12 1 11 13
M  V30 13 1 13 14
M  V30 14 2 13 15
M  V30 15 2 14 16
M  V30 16 1 14 17
M  V30 17 1 15 18
M  V30 18 1 16 19
M  V30 19 2 17 20
M  V30 20 1 18 21
M  V30 21 2 18 22
M  V30 22 2 19 23
M  V30 23 1 21 24
M  V30 24 1 22 25
M  V30 25 1 7 9
M  V30 26 1 20 23
M  V30 27 2 24 25
M  V30 28 1 4 26
M  V30 29 1 6 27
M  V30 30 1 8 28
M  V30 31 1 8 29
M  V30 32 1 8 30
M  V30 33 1 9 31
M  V30 34 1 10 32
M  V30 35 1 15 33
M  V30 36 1 16 34
M  V30 37 1 17 35
M  V30 38 1 19 36
M  V30 39 1 20 37
M  V30 40 1 22 38
M  V30 41 1 23 39
M  V30 42 1 24 40
M  V30 43 1 25 41
M  V30 END BOND
M  V30 END CTAB
M  END
>  <level_0>
3959

>  <index>
3959

>  <NO.>
3960

>  <Name>
levorphanol

>  <SMILES>
COc1ccc(NC(=O)/C(=C/c2ccco2)c2ccccc2)cc1Cl

>  <logBB>


>  <Class>
1

>  <MW>
353.08

>  <nHBAcc>
3

>  <nHBDon>
1

>  <SLogP>
5.12

>  <TopoPSA>
51.47

>  <MMFF94 Energy>
46.003

$$$$
COc1ccc2c(c1)[C@@H](NC(=O)/C(=C/c1ccco1)c1ccccc1)CC(C)(C)O2
Actelion Java MolfileCreator 2.0

  0  0  0  0  0  0              0 V3000
M  V30 BEGIN CTAB
M  V30 COUNTS 55 58 0 0 0
M  V30 BEGIN ATOM
M  V30 1 O 1.5144 -0.1593 1.2752 0
M  V30 2 C 0.6641 0.4562 0.6427 0
M  V30 3 N 0.227 0.0853 -0.608 0
M  V30 4 C -8.0E-4 1.6944 1.2013 0
M  V30 5 C 0.6989 -1.0875 -1.3361 0 CFG=2
M  V30 6 C -0.7071 2.6354 0.3119 0
M  V30 7 C 0.097 1.832 2.54 0
M  V30 8 C 0.333 -2.4064 -0.704 0
M  V30 9 C 2.1934 -1.0258 -1.6424 0
M  V30 10 C -2.1054 2.7306 0.3363 0
M  V30 11 C 0.0185 3.4186 -0.5962 0
M  V30 12 C -0.4202 2.9027 3.3245 0
M  V30 13 C 1.182 -3.5073 -0.8592 0
M  V30 14 C -0.8799 -2.577 -0.0062 0
M  V30 15 C 2.66 -2.3168 -2.328 0
M  V30 16 C -2.766 3.6023 -0.5303 0
M  V30 17 C -0.6455 4.2886 -1.4622 0
M  V30 18 O -0.8125 2.6974 4.6322 0
M  V30 19 C -0.6026 4.2568 3.0579 0
M  V30 20 O 2.3677 -3.4819 -1.5399 0
M  V30 21 C 0.8485 -4.738 -0.2946 0
M  V30 22 C -1.2144 -3.8083 0.5618 0
M  V30 23 C 4.1899 -2.2764 -2.4646 0
M  V30 24 C 2.0559 -2.5035 -3.7284 0
M  V30 25 C -2.0363 4.3797 -1.4286 0
M  V30 26 C -1.2456 3.8713 5.1478 0
M  V30 27 C -1.1383 4.8691 4.2163 0
M  V30 28 C -0.3454 -4.8874 0.4097 0
M  V30 29 O -2.3531 -4.0837 1.2677 0
M  V30 30 C -3.1566 -2.9722 1.643 0
M  V30 31 H -0.4925 0.6349 -1.0569 0
M  V30 32 H 0.1539 -1.0433 -2.288 0
M  V30 33 H 0.5889 1.0526 3.1208 0
M  V30 34 H 2.4164 -0.147 -2.2606 0
M  V30 35 H 2.7601 -0.9032 -0.711 0
M  V30 36 H -2.687 2.1332 1.0359 0
M  V30 37 H 1.1047 3.3593 -0.6306 0
M  V30 38 H -1.5485 -1.7282 0.0858 0
M  V30 39 H -3.8503 3.6786 -0.5015 0
M  V30 40 H -0.0778 4.8982 -2.1609 0
M  V30 41 H -0.3647 4.7569 2.1297 0
M  V30 42 H 1.5196 -5.585 -0.4067 0
M  V30 43 H 4.5671 -3.1982 -2.9223 0
M  V30 44 H 4.6676 -2.2061 -1.4804 0
M  V30 45 H 4.5196 -1.4271 -3.0719 0
M  V30 46 H 2.4678 -3.3981 -4.21 0
M  V30 47 H 2.2607 -1.6411 -4.3709 0
M  V30 48 H 0.9729 -2.6589 -3.692 0
M  V30 49 H -2.5525 5.0609 -2.1009 0
M  V30 50 H -1.5865 3.8343 6.1729 0
M  V30 51 H -1.4004 5.9083 4.3544 0
M  V30 52 H -0.5966 -5.8504 0.8461 0
M  V30 53 H -2.5808 -2.2389 2.2178 0
M  V30 54 H -3.9601 -3.3428 2.2868 0
M  V30 55 H -3.6203 -2.5107 0.7652 0
M  V30 END ATOM
M  V30 BEGIN BOND
M  V30 1 2 1 2
M  V30 2 1 2 3
M  V30 3 1 2 4
M  V30 4 1 3 5
M  V30 5 1 4 6
M  V30 6 2 4 7
M  V30 7 1 5 8
M  V30 8 1 5 9
M  V30 9 2 6 10
M  V30 10 1 6 11
M  V30 11 1 7 12
M  V30 12 2 8 13
M  V30 13 1 8 14
M  V30 14 1 9 15
M  V30 15 1 10 16
M  V30 16 2 11 17
M  V30 17 1 12 18
M  V30 18 2 12 19
M  V30 19 1 13 20
M  V30 20 1 13 21
M  V30 21 2 14 22
M  V30 22 1 15 23
M  V30 23 1 15 24
M  V30 24 2 16 25
M  V30 25 1 18 26
M  V30 26 1 19 27
M  V30 27 2 21 28
M  V30 28 1 22 29
M  V30 29 1 29 30
M  V30 30 1 15 20
M  V30 31 1 17 25
M  V30 32 1 22 28
M  V30 33 2 26 27
M  V30 34 1 3 31
M  V30 35 1 5 32
M  V30 36 1 7 33
M  V30 37 1 9 34
M  V30 38 1 9 35
M  V30 39 1 10 36
M  V30 40 1 11 37
M  V30 41 1 14 38
M  V30 42 1 16 39
M  V30 43 1 17 40
M  V30 44 1 19 41
M  V30 45 1 21 42
M  V30 46 1 23 43
M  V30 47 1 23 44
M  V30 48 1 23 45
M  V30 49 1 24 46
M  V30 50 1 24 47
M  V30 51 1 24 48
M  V30 52 1 25 49
M  V30 53 1 26 50
M  V30 54 1 27 51
M  V30 55 1 28 52
M  V30 56 1 30 53
M  V30 57 1 30 54
M  V30 58 1 30 55
M  V30 END BOND
M  V30 BEGIN COLLECTION
M  V30 MDLV30/STEABS ATOMS=(1 5)
M  V30 END COLLECTION
M  V30 END CTAB
M  END
>  <level_0>
4003

>  <index>
4003

>  <NO.>
4004

>  <Name>
midazolam

>  <SMILES>
COc1ccc2c(c1)[C@@H](NC(=O)/C(=C/c1ccco1)c1ccccc1)CC(C)(C)O2

>  <logBB>


>  <Class>
1

>  <MW>
403.18

>  <nHBAcc>
4

>  <nHBDon>
1

>  <SLogP>
5.25

>  <TopoPSA>
60.7

>  <MMFF94 Energy>
31.559

$$$$
CS(=O)(=O)[C@@H]1[C@H](c2ccc3c(c2)OCO3)C1(CN)CN
Actelion Java MolfileCreator 2.0

  0  0  0  0  0  0              0 V3000
M  V30 BEGIN CTAB
M  V30 COUNTS 38 40 0 0 0
M  V30 BEGIN ATOM
M  V30 1 S -0.243 -1.8646 -1.3779 0
M  V30 2 O 0.8537 -2.7808 -1.1281 0
M  V30 3 O -1.3693 -1.7875 -0.4703 0
M  V30 4 C 0.5021 -0.2586 -1.6434 0 CFG=1
M  V30 5 C -0.8804 -2.2736 -2.9824 0
M  V30 6 C -0.2734 1.0181 -1.345 0
M  V30 7 C 0.9493 0.5999 -0.4943 0 CFG=1
M  V30 8 C -0.1408 2.1448 -2.3667 0
M  V30 9 C -1.6504 1.0383 -0.6983 0
M  V30 10 C 0.8609 0.2992 0.988 0
M  V30 11 N 1.1984 2.3009 -2.9273 0
M  V30 12 N -2.654 0.5282 -1.6286 0
M  V30 13 C 1.2915 -0.9228 1.5349 0
M  V30 14 C 0.294 1.2486 1.8816 0
M  V30 15 C 1.1455 -1.1483 2.8902 0
M  V30 16 C 0.1542 1.001 3.2526 0
M  V30 17 O 1.5245 -2.2741 3.5532 0
M  V30 18 C 0.5888 -0.213 3.7255 0
M  V30 19 C 1.1126 -1.9493 4.896 0
M  V30 20 O 0.5392 -0.6304 5.0179 0
M  V30 21 H 1.1629 -0.2578 -2.503 0
M  V30 22 H -0.054 -2.2924 -3.6955 0
M  V30 23 H -1.3423 -3.2615 -2.9232 0
M  V30 24 H -1.6233 -1.5334 -3.2797 0
M  V30 25 H 1.882 1.1244 -0.7056 0
M  V30 26 H -0.4361 3.0972 -1.9111 0
M  V30 27 H -0.8315 1.951 -3.1952 0
M  V30 28 H -1.9062 2.0733 -0.4403 0
M  V30 29 H -1.714 0.4813 0.2388 0
M  V30 30 H 1.1517 2.9697 -3.6966 0
M  V30 31 H 1.8009 2.7394 -2.2315 0
M  V30 32 H -3.5672 0.8703 -1.324 0
M  V30 33 H -2.7183 -0.4798 -1.4408 0
M  V30 34 H 1.7549 -1.6862 0.9193 0
M  V30 35 H -0.0383 2.2104 1.4945 0
M  V30 36 H -0.2799 1.7381 3.918 0
M  V30 37 H 0.3704 -2.6863 5.2245 0
M  V30 38 H 1.9859 -2.0128 5.5553 0
M  V30 END ATOM
M  V30 BEGIN BOND
M  V30 1 2 1 2
M  V30 2 2 1 3
M  V30 3 1 1 4
M  V30 4 1 1 5
M  V30 5 1 4 6
M  V30 6 1 4 7
M  V30 7 1 6 8
M  V30 8 1 6 9
M  V30 9 1 7 10
M  V30 10 1 8 11
M  V30 11 1 9 12
M  V30 12 2 10 13
M  V30 13 1 10 14
M  V30 14 1 13 15
M  V30 15 2 14 16
M  V30 16 1 15 17
M  V30 17 2 15 18
M  V30 18 1 17 19
M  V30 19 1 18 20
M  V30 20 1 6 7
M  V30 21 1 16 18
M  V30 22 1 19 20
M  V30 23 1 4 21
M  V30 24 1 5 22
M  V30 25 1 5 23
M  V30 26 1 5 24
M  V30 27 1 7 25
M  V30 28 1 8 26
M  V30 29 1 8 27
M  V30 30 1 9 28
M  V30 31 1 9 29
M  V30 32 1 11 30
M  V30 33 1 11 31
M  V30 34 1 12 32
M  V30 35 1 12 33
M  V30 36 1 13 34
M  V30 37 1 14 35
M  V30 38 1 16 36
M  V30 39 1 19 37
M  V30 40 1 19 38
M  V30 END BOND
M  V30 BEGIN COLLECTION
M  V30 MDLV30/STEABS ATOMS=(2 4 7)
M  V30 END COLLECTION
M  V30 END CTAB
M  END
>  <level_0>
4013

>  <index>
4013

>  <NO.>
4014

>  <Name>
secobarbital

>  <SMILES>
CS(=O)(=O)[C@@H]1[C@H](c2ccc3c(c2)OCO3)C1(CN)CN

>  <logBB>


>  <Class>
1

>  <MW>
298.1

>  <nHBAcc>
6

>  <nHBDon>
2

>  <SLogP>
-0.17

>  <TopoPSA>
104.64

>  <MMFF94 Energy>
12.594

$$$$
CS(=O)(=O)[C@@H]1[C@H](c2ccc3c(c2)OCO3)[C@@]1(N)CO
Actelion Java MolfileCreator 2.0

  0  0  0  0  0  0              0 V3000
M  V30 BEGIN CTAB
M  V30 COUNTS 34 36 0 0 0
M  V30 BEGIN ATOM
M  V30 1 S 0.49 -1.389 -2.0432 0
M  V30 2 O -0.5332 -1.805 -1.1046 0
M  V30 3 O 0.3291 -1.6394 -3.4631 0
M  V30 4 C 0.7876 0.3802 -1.8992 0 CFG=1
M  V30 5 C 2.0187 -2.1419 -1.5661 0
M  V30 6 C -0.4412 1.2487 -1.7259 0 CFG=2
M  V30 7 C 0.5829 1.1197 -0.6026 0 CFG=1
M  V30 8 N -1.8068 0.6767 -1.5905 0
M  V30 9 C -0.4357 2.5547 -2.5128 0
M  V30 10 C 0.3827 0.4497 0.7396 0
M  V30 11 O -0.7504 2.2656 -3.8704 0
M  V30 12 C -0.859 0.3891 1.3982 0
M  V30 13 C 1.5047 -0.1016 1.4155 0
M  V30 14 C -0.9451 -0.2319 2.6292 0
M  V30 15 C 1.3977 -0.7262 2.6642 0
M  V30 16 O -2.0757 -0.3674 3.3736 0
M  V30 17 C 0.1527 -0.7796 3.2426 0
M  V30 18 C -1.5665 -1.0955 4.5091 0
M  V30 19 O -0.1447 -1.3363 4.4461 0
M  V30 20 H 1.5617 0.744 -2.5631 0
M  V30 21 H 2.1955 -1.9779 -0.5052 0
M  V30 22 H 1.9428 -3.214 -1.7612 0
M  V30 23 H 2.825 -1.714 -2.1645 0
M  V30 24 H 1.2372 1.9885 -0.495 0
M  V30 25 H -1.7753 -0.2659 -1.1778 0
M  V30 26 H -2.1922 0.5275 -2.5281 0
M  V30 27 H -1.1869 3.2422 -2.1081 0
M  V30 28 H 0.5393 3.0522 -2.4868 0
M  V30 29 H -1.0221 3.104 -4.2802 0
M  V30 30 H -1.7508 0.8288 0.9641 0
M  V30 31 H 2.4898 -0.0321 0.9575 0
M  V30 32 H 2.2635 -1.1463 3.1627 0
M  V30 33 H -1.7839 -0.5231 5.4182 0
M  V30 34 H -2.0837 -2.0603 4.5693 0
M  V30 END ATOM
M  V30 BEGIN BOND
M  V30 1 2 1 2
M  V30 2 2 1 3
M  V30 3 1 1 4
M  V30 4 1 1 5
M  V30 5 1 4 6
M  V30 6 1 4 7
M  V30 7 1 6 8
M  V30 8 1 6 9
M  V30 9 1 7 10
M  V30 10 1 9 11
M  V30 11 2 10 12
M  V30 12 1 10 13
M  V30 13 1 12 14
M  V30 14 2 13 15
M  V30 15 1 14 16
M  V30 16 2 14 17
M  V30 17 1 16 18
M  V30 18 1 17 19
M  V30 19 1 6 7
M  V30 20 1 15 17
M  V30 21 1 18 19
M  V30 22 1 4 20
M  V30 23 1 5 21
M  V30 24 1 5 22
M  V30 25 1 5 23
M  V30 26 1 7 24
M  V30 27 1 8 25
M  V30 28 1 8 26
M  V30 29 1 9 27
M  V30 30 1 9 28
M  V30 31 1 11 29
M  V30 32 1 12 30
M  V30 33 1 13 31
M  V30 34 1 15 32
M  V30 35 1 18 33
M  V30 36 1 18 34
M  V30 END BOND
M  V30 BEGIN COLLECTION
M  V30 MDLV30/STEABS ATOMS=(3 4 6 7)
M  V30 END COLLECTION
M  V30 END CTAB
M  END
>  <level_0>
4014

>  <index>
4014

>  <NO.>
4015

>  <Name>
streptozotocin

>  <SMILES>
CS(=O)(=O)[C@@H]1[C@H](c2ccc3c(c2)OCO3)[C@@]1(N)CO

>  <logBB>


>  <Class>
-1

>  <MW>
285.07

>  <nHBAcc>
6

>  <nHBDon>
2

>  <SLogP>
-0.38

>  <TopoPSA>
98.85

>  <MMFF94 Energy>
51.891

$$$$
CS(=O)(=O)[C@H]1[C@H](c2ccc3c(c2)OCO3)[C@@]1(CN)CO
Actelion Java MolfileCreator 2.0

  0  0  0  0  0  0              0 V3000
M  V30 BEGIN CTAB
M  V30 COUNTS 37 39 0 0 0
M  V30 BEGIN ATOM
M  V30 1 S -0.7318 -3.2558 -0.7318 0
M  V30 2 O -1.3502 -3.8002 -1.9229 0
M  V30 3 O 0.5095 -3.8004 -0.2187 0
M  V30 4 C -0.5409 -1.4851 -1.0378 0 CFG=2
M  V30 5 C -1.9335 -3.3187 0.5704 0
M  V30 6 C 0.8267 -0.8956 -1.368 0 CFG=1
M  V30 7 C 0.2244 -0.7708 0.0424 0 CFG=1
M  V30 8 C 2.0632 -1.7582 -1.526 0
M  V30 9 C 0.8056 0.2652 -2.3437 0
M  V30 10 C -0.2134 0.5674 0.61 0
M  V30 11 O 1.8208 -2.7609 -2.5017 0
M  V30 12 N 1.7821 1.2723 -1.9493 0
M  V30 13 C 0.629 1.2244 1.5312 0
M  V30 14 C -1.488 1.1419 0.371 0
M  V30 15 C 0.2155 2.4078 2.1088 0
M  V30 16 C -1.8885 2.3452 0.9685 0
M  V30 17 O 0.9296 3.1534 2.9931 0
M  V30 18 C -1.01 2.9557 1.8314 0
M  V30 19 C 0.011 4.2397 3.236 0
M  V30 20 O -1.2257 4.1172 2.5023 0
M  V30 21 H -1.4014 -1.0305 -1.5048 0
M  V30 22 H -1.5223 -2.8345 1.4578 0
M  V30 23 H -2.1494 -4.3674 0.7846 0
M  V30 24 H -2.8408 -2.8108 0.238 0
M  V30 25 H 0.7159 -1.3957 0.791 0
M  V30 26 H 2.3828 -2.2219 -0.5867 0
M  V30 27 H 2.9171 -1.1662 -1.8711 0
M  V30 28 H -0.1837 0.7318 -2.4061 0
M  V30 29 H 1.0444 -0.0986 -3.3495 0
M  V30 30 H 1.6552 -3.5864 -2.005 0
M  V30 31 H 1.8174 1.9959 -2.6662 0
M  V30 32 H 1.4615 1.7411 -1.103 0
M  V30 33 H 1.6046 0.8158 1.7795 0
M  V30 34 H -2.1945 0.6544 -0.2957 0
M  V30 35 H -2.8617 2.7781 0.7652 0
M  V30 36 H -0.2185 4.2721 4.3074 0
M  V30 37 H 0.4964 5.1803 2.9511 0
M  V30 END ATOM
M  V30 BEGIN BOND
M  V30 1 2 1 2
M  V30 2 2 1 3
M  V30 3 1 1 4
M  V30 4 1 1 5
M  V30 5 1 4 6
M  V30 6 1 4 7
M  V30 7 1 6 8
M  V30 8 1 6 9
M  V30 9 1 7 10
M  V30 10 1 8 11
M  V30 11 1 9 12
M  V30 12 2 10 13
M  V30 13 1 10 14
M  V30 14 1 13 15
M  V30 15 2 14 16
M  V30 16 1 15 17
M  V30 17 2 15 18
M  V30 18 1 17 19
M  V30 19 1 18 20
M  V30 20 1 6 7
M  V30 21 1 16 18
M  V30 22 1 19 20
M  V30 23 1 4 21
M  V30 24 1 5 22
M  V30 25 1 5 23
M  V30 26 1 5 24
M  V30 27 1 7 25
M  V30 28 1 8 26
M  V30 29 1 8 27
M  V30 30 1 9 28
M  V30 31 1 9 29
M  V30 32 1 11 30
M  V30 33 1 12 31
M  V30 34 1 12 32
M  V30 35 1 13 33
M  V30 36 1 14 34
M  V30 37 1 16 35
M  V30 38 1 19 36
M  V30 39 1 19 37
M  V30 END BOND
M  V30 BEGIN COLLECTION
M  V30 MDLV30/STEABS ATOMS=(3 4 6 7)
M  V30 END COLLECTION
M  V30 END CTAB
M  END
>  <level_0>
4017

>  <index>
4017

>  <NO.>
4018

>  <Name>
sevoflurane

>  <SMILES>
CS(=O)(=O)[C@H]1[C@H](c2ccc3c(c2)OCO3)[C@@]1(CN)CO

>  <logBB>


>  <Class>
1

>  <MW>
299.08

>  <nHBAcc>
6

>  <nHBDon>
2

>  <SLogP>
-0.14

>  <TopoPSA>
98.85

>  <MMFF94 Energy>
10.226

$$$$
CS(=O)(=O)[C@H]1[C@H](c2ccccc2)[C@@]1(N)CO
Actelion Java MolfileCreator 2.0

  0  0  0  0  0  0              0 V3000
M  V30 BEGIN CTAB
M  V30 COUNTS 31 32 0 0 0
M  V30 BEGIN ATOM
M  V30 1 S -0.4865 1.9471 -2.1095 0
M  V30 2 O -1.2492 1.6846 -3.3127 0
M  V30 3 O -0.9721 2.876 -1.1082 0
M  V30 4 C -0.1933 0.3406 -1.3321 0 CFG=2
M  V30 5 C 1.1388 2.4648 -2.5903 0
M  V30 6 C -1.3656 -0.288 -0.5984 0 CFG=2
M  V30 7 C -0.2099 0.3614 0.1721 0 CFG=1
M  V30 8 N -1.4357 -1.7908 -0.6643 0
M  V30 9 C -2.7283 0.4022 -0.5568 0
M  V30 10 C 0.7421 -0.4671 1.0237 0
M  V30 11 O -3.6611 -0.459 0.1052 0
M  V30 12 C 1.7194 -1.3305 0.4974 0
M  V30 13 C 0.7722 -0.2622 2.417 0
M  V30 14 C 2.6334 -1.9995 1.3194 0
M  V30 15 C 1.6828 -0.9249 3.2455 0
M  V30 16 C 2.6125 -1.7985 2.6949 0
M  V30 17 H 0.449 -0.3263 -1.8848 0
M  V30 18 H 1.7575 2.5566 -1.6956 0
M  V30 19 H 1.0557 3.4326 -3.089 0
M  V30 20 H 1.5568 1.7253 -3.2756 0
M  V30 21 H -0.4567 1.3131 0.6435 0
M  V30 22 H -1.1179 -2.1707 0.2306 0
M  V30 23 H -2.4346 -2.0343 -0.6633 0
M  V30 24 H -2.7032 1.3463 -0.0063 0
M  V30 25 H -3.1005 0.5724 -1.5713 0
M  V30 26 H -4.5133 0.0103 0.0941 0
M  V30 27 H 1.7692 -1.5174 -0.5717 0
M  V30 28 H 0.0603 0.4245 2.8729 0
M  V30 29 H 3.3614 -2.6765 0.8799 0
M  V30 30 H 1.6647 -0.7526 4.3186 0
M  V30 31 H 3.3217 -2.317 3.3344 0
M  V30 END ATOM
M  V30 BEGIN BOND
M  V30 1 2 1 2
M  V30 2 2 1 3
M  V30 3 1 1 4
M  V30 4 1 1 5
M  V30 5 1 4 6
M  V30 6 1 4 7
M  V30 7 1 6 8
M  V30 8 1 6 9
M  V30 9 1 7 10
M  V30 10 1 9 11
M  V30 11 2 10 12
M  V30 12 1 10 13
M  V30 13 1 12 14
M  V30 14 2 13 15
M  V30 15 2 14 16
M  V30 16 1 6 7
M  V30 17 1 15 16
M  V30 18 1 4 17
M  V30 19 1 5 18
M  V30 20 1 5 19
M  V30 21 1 5 20
M  V30 22 1 7 21
M  V30 23 1 8 22
M  V30 24 1 8 23
M  V30 25 1 9 24
M  V30 26 1 9 25
M  V30 27 1 11 26
M  V30 28 1 12 27
M  V30 29 1 13 28
M  V30 30 1 14 29
M  V30 31 1 15 30
M  V30 32 1 16 31
M  V30 END BOND
M  V30 BEGIN COLLECTION
M  V30 MDLV30/STEABS ATOMS=(3 4 6 7)
M  V30 END COLLECTION
M  V30 END CTAB
M  END
>  <level_0>
4018

>  <index>
4018

>  <NO.>
4019

>  <Name>
kanamycin

>  <SMILES>
CS(=O)(=O)[C@H]1[C@H](c2ccccc2)[C@@]1(N)CO

>  <logBB>


>  <Class>
-1

>  <MW>
241.08

>  <nHBAcc>
4

>  <nHBDon>
2

>  <SLogP>
-0.11

>  <TopoPSA>
80.39

>  <MMFF94 Energy>
35.303

$$$$
C[C@@H]1CCCN(c2ccc([C@@H](C)NC(=O)/C(=C/c3ccco3)c3ccccc3)cc2)C1
Actelion Java MolfileCreator 2.0

  0  0  0  0  0  0              0 V3000
M  V30 BEGIN CTAB
M  V30 COUNTS 61 64 0 0 0
M  V30 BEGIN ATOM
M  V30 1 O 1.1901 -4.2894 -1.6664 0
M  V30 2 C 0.402 -3.6221 -1.0015 0
M  V30 3 N 0.7274 -2.3917 -0.4865 0
M  V30 4 C -0.9992 -4.1008 -0.6937 0
M  V30 5 C 2.0296 -1.7819 -0.6888 0 CFG=1
M  V30 6 C -1.8959 -3.3 0.1596 0
M  V30 7 C -1.3346 -5.2852 -1.247 0
M  V30 8 C 1.9177 -0.2784 -0.5128 0
M  V30 9 C 3.0812 -2.398 0.2384 0
M  V30 10 C -2.728 -2.3258 -0.4075 0
M  V30 11 C -1.8919 -3.4784 1.5494 0
M  V30 12 C -2.5878 -5.9513 -1.1073 0
M  V30 13 C 2.0113 0.5647 -1.6247 0
M  V30 14 C 1.6859 0.307 0.7379 0
M  V30 15 C -3.5426 -1.538 0.407 0
M  V30 16 C -2.7087 -2.6895 2.3608 0
M  V30 17 O -3.6644 -5.4919 -0.3822 0
M  V30 18 C -2.966 -7.1712 -1.6628 0
M  V30 19 C 1.8885 1.9528 -1.4823 0
M  V30 20 C 1.5662 1.6974 0.8696 0
M  V30 21 C -3.5314 -1.7191 1.7897 0
M  V30 22 C -4.6732 -6.3881 -0.4811 0
M  V30 23 C -4.2947 -7.4474 -1.2627 0
M  V30 24 C 1.6587 2.553 -0.2359 0
M  V30 25 N 1.5452 3.9383 -0.1289 0
M  V30 26 C 1.8553 4.5939 1.1453 0
M  V30 27 C 0.5353 4.5912 -0.9706 0
M  V30 28 C 2.2447 6.0618 0.9122 0 CFG=1
M  V30 29 C 0.9127 6.0496 -1.216 0
M  V30 30 C 1.1706 6.7871 0.0938 0
M  V30 31 C 2.4845 6.7748 2.2414 0
M  V30 32 H 0.0416 -1.8654 0.0385 0
M  V30 33 H 2.3386 -1.9988 -1.7195 0
M  V30 34 H -0.6024 -5.8049 -1.8625 0
M  V30 35 H 2.7936 -2.3217 1.2928 0
M  V30 36 H 4.0515 -1.9047 0.1147 0
M  V30 37 H 3.2164 -3.4631 0.0214 0
M  V30 38 H -2.7479 -2.179 -1.485 0
M  V30 39 H -1.2583 -4.2364 2.0044 0
M  V30 40 H 2.1872 0.1533 -2.6163 0
M  V30 41 H 1.5877 -0.3099 1.6281 0
M  V30 42 H -4.1895 -0.7864 -0.0378 0
M  V30 43 H -2.7078 -2.8363 3.4377 0
M  V30 44 H -2.3396 -7.7902 -2.2909 0
M  V30 45 H 2.005 2.5728 -2.3678 0
M  V30 46 H 1.3729 2.0965 1.8611 0
M  V30 47 H -4.1706 -1.1082 2.4222 0
M  V30 48 H -5.5781 -6.1321 0.0517 0
M  V30 49 H -4.897 -8.3087 -1.5131 0
M  V30 50 H 2.6999 4.097 1.64 0
M  V30 51 H 0.988 4.5292 1.8151 0
M  V30 52 H -0.4402 4.5355 -0.4708 0
M  V30 53 H 0.4202 4.1053 -1.9456 0
M  V30 54 H 3.1827 6.0839 0.3407 0
M  V30 55 H 0.112 6.5504 -1.7717 0
M  V30 56 H 1.8143 6.0937 -1.8397 0
M  V30 57 H 1.4889 7.8137 -0.1217 0
M  V30 58 H 0.2374 6.8533 0.6675 0
M  V30 59 H 2.7942 7.8119 2.0752 0
M  V30 60 H 1.5783 6.7865 2.8566 0
M  V30 61 H 3.2749 6.2765 2.8123 0
M  V30 END ATOM
M  V30 BEGIN BOND
M  V30 1 2 1 2
M  V30 2 1 2 3
M  V30 3 1 2 4
M  V30 4 1 3 5
M  V30 5 1 4 6
M  V30 6 2 4 7
M  V30 7 1 5 8
M  V30 8 1 5 9
M  V30 9 2 6 10
M  V30 10 1 6 11
M  V30 11 1 7 12
M  V30 12 2 8 13
M  V30 13 1 8 14
M  V30 14 1 10 15
M  V30 15 2 11 16
M  V30 16 1 12 17
M  V30 17 2 12 18
M  V30 18 1 13 19
M  V30 19 2 14 20
M  V30 20 2 15 21
M  V30 21 1 17 22
M  V30 22 1 18 23
M  V30 23 2 19 24
M  V30 24 1 24 25
M  V30 25 1 25 26
M  V30 26 1 25 27
M  V30 27 1 26 28
M  V30 28 1 27 29
M  V30 29 1 28 30
M  V30 30 1 28 31
M  V30 31 1 16 21
M  V30 32 1 20 24
M  V30 33 2 22 23
M  V30 34 1 29 30
M  V30 35 1 3 32
M  V30 36 1 5 33
M  V30 37 1 7 34
M  V30 38 1 9 35
M  V30 39 1 9 36
M  V30 40 1 9 37
M  V30 41 1 10 38
M  V30 42 1 11 39
M  V30 43 1 13 40
M  V30 44 1 14 41
M  V30 45 1 15 42
M  V30 46 1 16 43
M  V30 47 1 18 44
M  V30 48 1 19 45
M  V30 49 1 20 46
M  V30 50 1 21 47
M  V30 51 1 22 48
M  V30 52 1 23 49
M  V30 53 1 26 50
M  V30 54 1 26 51
M  V30 55 1 27 52
M  V30 56 1 27 53
M  V30 57 1 28 54
M  V30 58 1 29 55
M  V30 59 1 29 56
M  V30 60 1 30 57
M  V30 61 1 30 58
M  V30 62 1 31 59
M  V30 63 1 31 60
M  V30 64 1 31 61
M  V30 END BOND
M  V30 BEGIN COLLECTION
M  V30 MDLV30/STEABS ATOMS=(2 5 28)
M  V30 END COLLECTION
M  V30 END CTAB
M  END
>  <level_0>
4022

>  <index>
4022

>  <NO.>
4023

>  <Name>
metronidazole

>  <SMILES>
C[C@@H]1CCCN(c2ccc([C@@H](C)NC(=O)/C(=C/c3ccco3)c3ccccc3)cc2)C1

>  <logBB>


>  <Class>
1

>  <MW>
414.23

>  <nHBAcc>
3

>  <nHBDon>
1

>  <SLogP>
5.93

>  <TopoPSA>
45.48

>  <MMFF94 Energy>
28.832

$$$$
Cc1ccc(SCCC(=O)N[C@@H](C)c2ccc(N3CCC[C@@H](C)C3)cc2)cc1
Actelion Java MolfileCreator 2.0

  0  0  0  0  0  0              0 V3000
M  V30 BEGIN CTAB
M  V30 COUNTS 60 62 0 0 0
M  V30 BEGIN ATOM
M  V30 1 S -2.8683 2.5493 5.1836 0
M  V30 2 C -4.2698 1.647 4.5475 0
M  V30 3 C -1.55 1.2877 5.0373 0
M  V30 4 C -4.6804 0.4347 5.1073 0
M  V30 5 C -4.995 2.1856 3.4812 0
M  V30 6 C -1.1988 1.0119 3.5815 0
M  V30 7 C -5.7845 -0.2467 4.5866 0
M  V30 8 C -6.0991 1.5051 2.96 0
M  V30 9 C -0.0823 -0.0045 3.476 0
M  V30 10 C -6.4929 0.2753 3.4987 0
M  V30 11 O 0.448 -0.5331 4.4463 0
M  V30 12 N 0.2725 -0.2755 2.1747 0
M  V30 13 C -7.6997 -0.4377 2.9645 0
M  V30 14 C 1.3266 -1.2174 1.8366 0 CFG=2
M  V30 15 C 1.8534 -0.9028 0.4485 0
M  V30 16 C 0.8437 -2.6645 1.9744 0
M  V30 17 C 3.0756 -0.2364 0.3025 0
M  V30 18 C 1.1359 -1.2187 -0.7109 0
M  V30 19 C 3.5725 0.0861 -0.9676 0
M  V30 20 C 1.6405 -0.8895 -1.9756 0
M  V30 21 C 2.8662 -0.2274 -2.1357 0
M  V30 22 N 3.3413 0.0787 -3.4087 0
M  V30 23 C 2.4596 0.8623 -4.2848 0
M  V30 24 C 4.7808 0.2355 -3.628 0
M  V30 25 C 2.769 0.585 -5.7635 0 CFG=1
M  V30 26 C 5.1309 -0.0518 -5.0866 0
M  V30 27 C 4.2668 0.7619 -6.0457 0
M  V30 28 C 2.2671 -0.7999 -6.1842 0
M  V30 29 H -1.8434 0.3713 5.5593 0
M  V30 30 H -0.672 1.6801 5.563 0
M  V30 31 H -4.1588 0.0131 5.9627 0
M  V30 32 H -4.7087 3.1409 3.0474 0
M  V30 33 H -0.8692 1.9314 3.0824 0
M  V30 34 H -2.061 0.6139 3.0341 0
M  V30 35 H -6.0911 -1.1858 5.0424 0
M  V30 36 H -6.6518 1.9454 2.133 0
M  V30 37 H -0.1929 0.2089 1.4182 0
M  V30 38 H -7.8287 -0.2395 1.8952 0
M  V30 39 H -7.5972 -1.5214 3.0835 0
M  V30 40 H -8.5966 -0.1061 3.4968 0
M  V30 41 H 2.1375 -1.0795 2.5639 0
M  V30 42 H -0.05 -2.8587 1.3715 0
M  V30 43 H 1.6228 -3.3701 1.666 0
M  V30 44 H 0.5803 -2.8897 3.0137 0
M  V30 45 H 3.6573 0.0439 1.1785 0
M  V30 46 H 0.1782 -1.7297 -0.6519 0
M  V30 47 H 4.5206 0.6137 -1.0209 0
M  V30 48 H 1.0702 -1.1877 -2.8521 0
M  V30 49 H 2.6147 1.9286 -4.0729 0
M  V30 50 H 1.3967 0.6642 -4.1039 0
M  V30 51 H 5.3537 -0.464 -3.0068 0
M  V30 52 H 5.0898 1.254 -3.3613 0
M  V30 53 H 2.2224 1.3204 -6.3683 0
M  V30 54 H 6.1891 0.174 -5.2612 0
M  V30 55 H 5.0008 -1.1213 -5.2908 0
M  V30 56 H 4.4971 0.4831 -7.0805 0
M  V30 57 H 4.5254 1.8236 -5.9414 0
M  V30 58 H 2.4856 -0.9854 -7.241 0
M  V30 59 H 1.1818 -0.8698 -6.0524 0
M  V30 60 H 2.7239 -1.6031 -5.598 0
M  V30 END ATOM
M  V30 BEGIN BOND
M  V30 1 1 1 2
M  V30 2 1 1 3
M  V30 3 2 2 4
M  V30 4 1 2 5
M  V30 5 1 3 6
M  V30 6 1 4 7
M  V30 7 2 5 8
M  V30 8 1 6 9
M  V30 9 2 7 10
M  V30 10 2 9 11
M  V30 11 1 9 12
M  V30 12 1 10 13
M  V30 13 1 12 14
M  V30 14 1 14 15
M  V30 15 1 14 16
M  V30 16 2 15 17
M  V30 17 1 15 18
M  V30 18 1 17 19
M  V30 19 2 18 20
M  V30 20 2 19 21
M  V30 21 1 21 22
M  V30 22 1 22 23
M  V30 23 1 22 24
M  V30 24 1 23 25
M  V30 25 1 24 26
M  V30 26 1 25 27
M  V30 27 1 25 28
M  V30 28 1 8 10
M  V30 29 1 20 21
M  V30 30 1 26 27
M  V30 31 1 3 29
M  V30 32 1 3 30
M  V30 33 1 4 31
M  V30 34 1 5 32
M  V30 35 1 6 33
M  V30 36 1 6 34
M  V30 37 1 7 35
M  V30 38 1 8 36
M  V30 39 1 12 37
M  V30 40 1 13 38
M  V30 41 1 13 39
M  V30 42 1 13 40
M  V30 43 1 14 41
M  V30 44 1 16 42
M  V30 45 1 16 43
M  V30 46 1 16 44
M  V30 47 1 17 45
M  V30 48 1 18 46
M  V30 49 1 19 47
M  V30 50 1 20 48
M  V30 51 1 23 49
M  V30 52 1 23 50
M  V30 53 1 24 51
M  V30 54 1 24 52
M  V30 55 1 25 53
M  V30 56 1 26 54
M  V30 57 1 26 55
M  V30 58 1 27 56
M  V30 59 1 27 57
M  V30 60 1 28 58
M  V30 61 1 28 59
M  V30 62 1 28 60
M  V30 END BOND
M  V30 BEGIN COLLECTION
M  V30 MDLV30/STEABS ATOMS=(2 14 25)
M  V30 END COLLECTION
M  V30 END CTAB
M  END
>  <level_0>
4045

>  <index>
4045

>  <NO.>
4046

>  <Name>
zonisamide

>  <SMILES>
Cc1ccc(SCCC(=O)N[C@@H](C)c2ccc(N3CCC[C@@H](C)C3)cc2)cc1

>  <logBB>


>  <Class>
1

>  <MW>
396.22

>  <nHBAcc>
3

>  <nHBDon>
1

>  <SLogP>
5.59

>  <TopoPSA>
32.34

>  <MMFF94 Energy>
12.753

$$$$
Cc1ccc(S[C@@H](C)C(=O)N[C@@H]2CC(C)(C)Oc3ccc(C)cc32)cc1
Actelion Java MolfileCreator 2.0

  0  0  0  0  0  0              0 V3000
M  V30 BEGIN CTAB
M  V30 COUNTS 53 55 0 0 0
M  V30 BEGIN ATOM
M  V30 1 S -0.8003 0.5602 -2.1622 0
M  V30 2 C -1.7835 1.5792 -3.2447 0
M  V30 3 C -0.2145 1.8247 -0.9575 0 CFG=2
M  V30 4 C -3.1534 1.3317 -3.361 0
M  V30 5 C -1.2074 2.6037 -3.9996 0
M  V30 6 C 0.9397 1.247 -0.1354 0
M  V30 7 C -1.3442 2.2668 -0.0335 0
M  V30 8 C -3.9436 2.1146 -4.2069 0
M  V30 9 C -1.9971 3.3869 -4.846 0
M  V30 10 O 2.0018 1.851 0.0025 0
M  V30 11 N 0.6852 0.0435 0.4819 0
M  V30 12 C -3.3698 3.1423 -4.9635 0
M  V30 13 C 1.6705 -0.6328 1.3113 0 CFG=1
M  V30 14 C -4.2227 4.003 -5.8478 0
M  V30 15 C 1.0108 -1.5517 2.3092 0
M  V30 16 C 2.6354 -1.4154 0.4219 0
M  V30 17 C 1.5449 -2.8166 2.5694 0
M  V30 18 C -0.1192 -1.1338 3.0373 0
M  V30 19 C 3.4892 -2.3822 1.2476 0
M  V30 20 O 2.668 -3.3159 1.9695 0
M  V30 21 C 0.9295 -3.6674 3.4881 0
M  V30 22 C -0.744 -1.9833 3.9601 0
M  V30 23 C 4.431 -1.6679 2.229 0
M  V30 24 C 4.3408 -3.2298 0.2902 0
M  V30 25 C -0.207 -3.2538 4.1829 0
M  V30 26 C -1.9332 -1.5119 4.7433 0
M  V30 27 H 0.1821 2.6874 -1.5031 0
M  V30 28 H -3.6202 0.5311 -2.7922 0
M  V30 29 H -0.1395 2.8001 -3.9457 0
M  V30 30 H -2.1345 2.7874 -0.5837 0
M  V30 31 H -1.796 1.4235 0.5012 0
M  V30 32 H -0.9642 2.9598 0.7259 0
M  V30 33 H -5.0103 1.9123 -4.2745 0
M  V30 34 H -1.5305 4.1851 -5.4192 0
M  V30 35 H -0.1581 -0.4599 0.2308 0
M  V30 36 H 2.2265 0.131 1.8693 0
M  V30 37 H -3.651 4.3663 -6.7081 0
M  V30 38 H -5.0743 3.4372 -6.2398 0
M  V30 39 H -4.5981 4.8623 -5.2837 0
M  V30 40 H 3.2657 -0.7269 -0.1547 0
M  V30 41 H 2.0515 -1.9916 -0.3111 0
M  V30 42 H -0.5162 -0.1314 2.8835 0
M  V30 43 H 1.3478 -4.6532 3.674 0
M  V30 44 H 3.8836 -1.1199 3.0025 0
M  V30 45 H 5.0893 -0.9638 1.7096 0
M  V30 46 H 5.0546 -2.3945 2.7629 0
M  V30 47 H 3.7048 -3.8041 -0.3932 0
M  V30 48 H 4.9376 -3.9645 0.8432 0
M  V30 49 H 5.0188 -2.6096 -0.3052 0
M  V30 50 H -0.6622 -3.9271 4.9053 0
M  V30 51 H -1.6037 -1.0122 5.6594 0
M  V30 52 H -2.5354 -0.812 4.1546 0
M  V30 53 H -2.5825 -2.3517 5.0122 0
M  V30 END ATOM
M  V30 BEGIN BOND
M  V30 1 1 1 2
M  V30 2 1 1 3
M  V30 3 2 2 4
M  V30 4 1 2 5
M  V30 5 1 3 6
M  V30 6 1 3 7
M  V30 7 1 4 8
M  V30 8 2 5 9
M  V30 9 2 6 10
M  V30 10 1 6 11
M  V30 11 2 8 12
M  V30 12 1 11 13
M  V30 13 1 12 14
M  V30 14 1 13 15
M  V30 15 1 13 16
M  V30 16 2 15 17
M  V30 17 1 15 18
M  V30 18 1 16 19
M  V30 19 1 17 20
M  V30 20 1 17 21
M  V30 21 2 18 22
M  V30 22 1 19 23
M  V30 23 1 19 24
M  V30 24 2 21 25
M  V30 25 1 22 26
M  V30 26 1 9 12
M  V30 27 1 19 20
M  V30 28 1 22 25
M  V30 29 1 3 27
M  V30 30 1 4 28
M  V30 31 1 5 29
M  V30 32 1 7 30
M  V30 33 1 7 31
M  V30 34 1 7 32
M  V30 35 1 8 33
M  V30 36 1 9 34
M  V30 37 1 11 35
M  V30 38 1 13 36
M  V30 39 1 14 37
M  V30 40 1 14 38
M  V30 41 1 14 39
M  V30 42 1 16 40
M  V30 43 1 16 41
M  V30 44 1 18 42
M  V30 45 1 21 43
M  V30 46 1 23 44
M  V30 47 1 23 45
M  V30 48 1 23 46
M  V30 49 1 24 47
M  V30 50 1 24 48
M  V30 51 1 24 49
M  V30 52 1 25 50
M  V30 53 1 26 51
M  V30 54 1 26 52
M  V30 55 1 26 53
M  V30 END BOND
M  V30 BEGIN COLLECTION
M  V30 MDLV30/STEABS ATOMS=(2 3 13)
M  V30 END COLLECTION
M  V30 END CTAB
M  END
>  <level_0>
4048

>  <index>
4048

>  <NO.>
4049

>  <Name>
thiotepa

>  <SMILES>
Cc1ccc(S[C@@H](C)C(=O)N[C@@H]2CC(C)(C)Oc3ccc(C)cc32)cc1

>  <logBB>


>  <Class>
1

>  <MW>
369.18

>  <nHBAcc>
3

>  <nHBDon>
1

>  <SLogP>
5.2

>  <TopoPSA>
38.33

>  <MMFF94 Energy>
39.136

$$$$
Cc1ccc(S[C@H](C)C(=O)NCCCc2ccc(OC(C)C)cc2)cc1
Actelion Java MolfileCreator 2.0

  0  0  0  0  0  0              0 V3000
M  V30 BEGIN CTAB
M  V30 COUNTS 55 56 0 0 0
M  V30 BEGIN ATOM
M  V30 1 S -1.5868 1.1106 -3.6526 0
M  V30 2 C -0.124 1.2227 -4.6678 0
M  V30 3 C -1.9108 -0.6997 -3.7213 0 CFG=1
M  V30 4 C 1.0476 0.5243 -4.3673 0
M  V30 5 C -0.1466 2.0632 -5.7845 0
M  V30 6 C -1.1478 -1.4293 -2.6157 0
M  V30 7 C -3.4085 -0.9447 -3.5739 0
M  V30 8 C 2.1746 0.648 -5.1856 0
M  V30 9 C 0.9799 2.1885 -6.6023 0
M  V30 10 O -0.4807 -2.4361 -2.846 0
M  V30 11 N -1.2914 -0.9061 -1.3484 0
M  V30 12 C 2.1531 1.4886 -6.3035 0
M  V30 13 C -0.6525 -1.4891 -0.187 0
M  V30 14 C 3.3514 1.5935 -7.1993 0
M  V30 15 C 0.7904 -1.0064 -0.0465 0
M  V30 16 C 1.5232 -1.6639 1.1255 0
M  V30 17 C 0.9614 -1.2892 2.4744 0
M  V30 18 C 0.2347 -2.2177 3.2263 0
M  V30 19 C 1.1469 -0.0012 2.9916 0
M  V30 20 C -0.2944 -1.8585 4.4683 0
M  V30 21 C 0.6159 0.3544 4.2372 0
M  V30 22 C -0.1047 -0.5746 4.9846 0
M  V30 23 O -0.6826 -0.3655 6.2046 0
M  V30 24 C -0.4105 0.8507 6.9076 0
M  V30 25 C -1.4384 1.9119 6.5257 0
M  V30 26 C -0.5216 0.5303 8.3969 0
M  V30 27 H -1.5807 -1.0901 -4.6903 0
M  V30 28 H 1.1105 -0.121 -3.4957 0
M  V30 29 H -1.0437 2.6254 -6.0335 0
M  V30 30 H -3.6204 -2.0198 -3.5914 0
M  V30 31 H -3.9689 -0.4848 -4.3953 0
M  V30 32 H -3.8036 -0.557 -2.6279 0
M  V30 33 H 3.0715 0.0836 -4.9392 0
M  V30 34 H 0.9339 2.8387 -7.473 0
M  V30 35 H -1.7905 -0.0294 -1.2437 0
M  V30 36 H -0.6855 -2.5805 -0.2759 0
M  V30 37 H -1.2528 -1.1964 0.6798 0
M  V30 38 H 3.4019 2.5809 -7.6701 0
M  V30 39 H 4.2772 1.4577 -6.6305 0
M  V30 40 H 3.3012 0.8304 -7.9818 0
M  V30 41 H 0.8042 0.0862 0.0527 0
M  V30 42 H 1.3412 -1.2355 -0.9673 0
M  V30 43 H 1.515 -2.7541 1.0018 0
M  V30 44 H 2.5801 -1.3694 1.1004 0
M  V30 45 H 0.0715 -3.2265 2.8545 0
M  V30 46 H 1.7081 0.7396 2.4259 0
M  V30 47 H -0.8589 -2.5894 5.0425 0
M  V30 48 H 0.7789 1.3685 4.5842 0
M  V30 49 H 0.6105 1.206 6.7286 0
M  V30 50 H -1.2816 2.8356 7.0914 0
M  V30 51 H -1.3854 2.15 5.459 0
M  V30 52 H -2.457 1.5548 6.7141 0
M  V30 53 H -0.3319 1.4166 9.0102 0
M  V30 54 H 0.2005 -0.2456 8.6733 0
M  V30 55 H -1.5144 0.1375 8.6433 0
M  V30 END ATOM
M  V30 BEGIN BOND
M  V30 1 1 1 2
M  V30 2 1 1 3
M  V30 3 2 2 4
M  V30 4 1 2 5
M  V30 5 1 3 6
M  V30 6 1 3 7
M  V30 7 1 4 8
M  V30 8 2 5 9
M  V30 9 2 6 10
M  V30 10 1 6 11
M  V30 11 2 8 12
M  V30 12 1 11 13
M  V30 13 1 12 14
M  V30 14 1 13 15
M  V30 15 1 15 16
M  V30 16 1 16 17
M  V30 17 2 17 18
M  V30 18 1 17 19
M  V30 19 1 18 20
M  V30 20 2 19 21
M  V30 21 2 20 22
M  V30 22 1 22 23
M  V30 23 1 23 24
M  V30 24 1 24 25
M  V30 25 1 24 26
M  V30 26 1 9 12
M  V30 27 1 21 22
M  V30 28 1 3 27
M  V30 29 1 4 28
M  V30 30 1 5 29
M  V30 31 1 7 30
M  V30 32 1 7 31
M  V30 33 1 7 32
M  V30 34 1 8 33
M  V30 35 1 9 34
M  V30 36 1 11 35
M  V30 37 1 13 36
M  V30 38 1 13 37
M  V30 39 1 14 38
M  V30 40 1 14 39
M  V30 41 1 14 40
M  V30 42 1 15 41
M  V30 43 1 15 42
M  V30 44 1 16 43
M  V30 45 1 16 44
M  V30 46 1 18 45
M  V30 47 1 19 46
M  V30 48 1 20 47
M  V30 49 1 21 48
M  V30 50 1 24 49
M  V30 51 1 25 50
M  V30 52 1 25 51
M  V30 53 1 25 52
M  V30 54 1 26 53
M  V30 55 1 26 54
M  V30 56 1 26 55
M  V30 END BOND
M  V30 BEGIN COLLECTION
M  V30 MDLV30/STEABS ATOMS=(1 3)
M  V30 END COLLECTION
M  V30 END CTAB
M  END
>  <level_0>
4049

>  <index>
4049

>  <NO.>
4050

>  <Name>
tamoxifen

>  <SMILES>
Cc1ccc(S[C@H](C)C(=O)NCCCc2ccc(OC(C)C)cc2)cc1

>  <logBB>


>  <Class>
1

>  <MW>
371.19

>  <nHBAcc>
3

>  <nHBDon>
1

>  <SLogP>
5.01

>  <TopoPSA>
38.33

>  <MMFF94 Energy>
43.759

$$$$
Cc1cccc(CSCCNC(=O)/C(=C/c2ccco2)c2ccccc2)c1
Actelion Java MolfileCreator 2.0

  0  0  0  0  0  0              0 V3000
M  V30 BEGIN CTAB
M  V30 COUNTS 50 52 0 0 0
M  V30 BEGIN ATOM
M  V30 1 S 2.7277 0.2404 2.0051 0
M  V30 2 C 3.3352 1.1104 0.5222 0
M  V30 3 C 1.2415 -0.5359 1.2928 0
M  V30 4 C 4.6499 1.7988 0.7914 0
M  V30 5 C 0.0907 0.4588 1.1347 0
M  V30 6 C 4.6796 3.1183 1.2706 0
M  V30 7 C 5.8615 1.1249 0.5859 0
M  V30 8 N -1.0959 -0.166 0.5797 0
M  V30 9 C 5.8962 3.7614 1.5369 0
M  V30 10 C 7.0763 1.7636 0.8343 0
M  V30 11 C -1.1986 -0.4471 -0.7634 0
M  V30 12 C 7.0939 3.0781 1.3004 0
M  V30 13 C 5.9139 5.1829 2.0158 0
M  V30 14 O -0.2934 -0.1978 -1.5545 0
M  V30 15 C -2.4992 -1.0844 -1.1925 0
M  V30 16 C -3.4176 -1.6624 -0.1941 0
M  V30 17 C -2.7311 -1.0558 -2.5214 0
M  V30 18 C -4.6176 -1.0152 0.131 0
M  V30 19 C -3.0783 -2.8525 0.4646 0
M  V30 20 C -3.8619 -1.5903 -3.2046 0
M  V30 21 C -5.4684 -1.5555 1.0966 0
M  V30 22 C -3.931 -3.3892 1.4305 0
M  V30 23 O -4.2741 -1.0562 -4.41 0
M  V30 24 C -4.7102 -2.6592 -2.9292 0
M  V30 25 C -5.1247 -2.7408 1.7455 0
M  V30 26 C -5.3506 -1.7481 -4.8502 0
M  V30 27 C -5.6633 -2.751 -3.9721 0
M  V30 28 H 2.5968 1.8508 0.1976 0
M  V30 29 H 3.457 0.3924 -0.2965 0
M  V30 30 H 1.5015 -1.0107 0.3411 0
M  V30 31 H 0.933 -1.3413 1.9689 0
M  V30 32 H -0.1977 0.8743 2.1068 0
M  V30 33 H 0.3693 1.2898 0.4782 0
M  V30 34 H 3.7441 3.6476 1.4433 0
M  V30 35 H 5.8639 0.0966 0.2315 0
M  V30 36 H -1.8691 -0.3663 1.2021 0
M  V30 37 H 8.0108 1.2351 0.6661 0
M  V30 38 H 8.0492 3.5639 1.4847 0
M  V30 39 H 5.9192 5.8657 1.1606 0
M  V30 40 H 6.7995 5.378 2.6298 0
M  V30 41 H 5.0365 5.3971 2.6352 0
M  V30 42 H -2.0169 -0.5559 -3.1746 0
M  V30 43 H -4.8993 -0.0906 -0.3696 0
M  V30 44 H -2.1509 -3.3701 0.2266 0
M  V30 45 H -6.4013 -1.0527 1.3407 0
M  V30 46 H -3.6657 -4.3147 1.9362 0
M  V30 47 H -4.6472 -3.3152 -2.0725 0
M  V30 48 H -5.7897 -3.1613 2.4963 0
M  V30 49 H -5.7691 -1.4142 -5.7893 0
M  V30 50 H -6.4677 -3.4657 -4.0721 0
M  V30 END ATOM
M  V30 BEGIN BOND
M  V30 1 1 1 2
M  V30 2 1 1 3
M  V30 3 1 2 4
M  V30 4 1 3 5
M  V30 5 2 4 6
M  V30 6 1 4 7
M  V30 7 1 5 8
M  V30 8 1 6 9
M  V30 9 2 7 10
M  V30 10 1 8 11
M  V30 11 2 9 12
M  V30 12 1 9 13
M  V30 13 2 11 14
M  V30 14 1 11 15
M  V30 15 1 15 16
M  V30 16 2 15 17
M  V30 17 2 16 18
M  V30 18 1 16 19
M  V30 19 1 17 20
M  V30 20 1 18 21
M  V30 21 2 19 22
M  V30 22 1 20 23
M  V30 23 2 20 24
M  V30 24 2 21 25
M  V30 25 1 23 26
M  V30 26 1 24 27
M  V30 27 1 10 12
M  V30 28 1 22 25
M  V30 29 2 26 27
M  V30 30 1 2 28
M  V30 31 1 2 29
M  V30 32 1 3 30
M  V30 33 1 3 31
M  V30 34 1 5 32
M  V30 35 1 5 33
M  V30 36 1 6 34
M  V30 37 1 7 35
M  V30 38 1 8 36
M  V30 39 1 10 37
M  V30 40 1 12 38
M  V30 41 1 13 39
M  V30 42 1 13 40
M  V30 43 1 13 41
M  V30 44 1 17 42
M  V30 45 1 18 43
M  V30 46 1 19 44
M  V30 47 1 21 45
M  V30 48 1 22 46
M  V30 49 1 24 47
M  V30 50 1 25 48
M  V30 51 1 26 49
M  V30 52 1 27 50
M  V30 END BOND
M  V30 END CTAB
M  END
>  <level_0>
4061

>  <index>
4061

>  <NO.>
4062

>  <Name>
loperamide

>  <SMILES>
Cc1cccc(CSCCNC(=O)/C(=C/c2ccco2)c2ccccc2)c1

>  <logBB>


>  <Class>
-1

>  <MW>
377.14

>  <nHBAcc>
3

>  <nHBDon>
1

>  <SLogP>
5.18

>  <TopoPSA>
42.24

>  <MMFF94 Energy>
43.977

$$$$
O=C(NCCSc1ccc(Cl)cc1)/C(=C/c1ccco1)c1ccccc1
Actelion Java MolfileCreator 2.0

  0  0  0  0  0  0              0 V3000
M  V30 BEGIN CTAB
M  V30 COUNTS 44 46 0 0 0
M  V30 BEGIN ATOM
M  V30 1 Cl 5.0523 -5.5422 -1.7091 0
M  V30 2 C 4.0379 -4.9849 -0.4366 0
M  V30 3 C 2.655 -5.1163 -0.5453 0
M  V30 4 C 4.6034 -4.409 0.6988 0
M  V30 5 C 1.8305 -4.6617 0.4879 0
M  V30 6 C 3.7776 -3.9555 1.7313 0
M  V30 7 C 2.3869 -4.0673 1.6256 0
M  V30 8 S 1.3656 -3.4831 2.9648 0
M  V30 9 C 0.3533 -2.2289 2.0981 0
M  V30 10 C 1.173 -0.9956 1.713 0
M  V30 11 N 0.3954 -0.038 0.9458 0
M  V30 12 C -0.5203 0.7993 1.5397 0
M  V30 13 O -0.749 0.7683 2.7457 0
M  V30 14 C -1.2305 1.7529 0.6063 0
M  V30 15 C -0.962 1.7265 -0.8428 0
M  V30 16 C -2.1012 2.5948 1.2023 0
M  V30 17 C -1.6969 0.8775 -1.6809 0
M  V30 18 C 0.0542 2.5224 -1.3875 0
M  V30 19 C -2.8951 3.5819 0.5472 0
M  V30 20 C -1.4146 0.8235 -3.0467 0
M  V30 21 C 0.3338 2.4654 -2.7537 0
M  V30 22 O -2.9137 3.8266 -0.8075 0
M  V30 23 C -3.791 4.4742 1.1313 0
M  V30 24 C -0.3988 1.6152 -3.5813 0
M  V30 25 C -3.7847 4.8313 -1.0587 0
M  V30 26 C -4.3562 5.2693 0.1065 0
M  V30 27 H 2.2129 -5.5769 -1.4248 0
M  V30 28 H 5.6821 -4.3135 0.7903 0
M  V30 29 H 0.7543 -4.7899 0.3993 0
M  V30 30 H 4.2294 -3.5138 2.6171 0
M  V30 31 H -0.1223 -2.6717 1.2168 0
M  V30 32 H -0.4573 -1.942 2.7764 0
M  V30 33 H 1.5545 -0.4911 2.6083 0
M  V30 34 H 2.0265 -1.2649 1.0826 0
M  V30 35 H 0.5615 0.0212 -0.051 0
M  V30 36 H -2.2321 2.5406 2.2819 0
M  V30 37 H -2.4977 0.2629 -1.2759 0
M  V30 38 H 0.626 3.1956 -0.7525 0
M  V30 39 H -1.993 0.1703 -3.695 0
M  V30 40 H 1.1177 3.0906 -3.1736 0
M  V30 41 H -4.0071 4.5371 2.1895 0
M  V30 42 H -0.1846 1.5775 -4.6465 0
M  V30 43 H -3.884 5.1136 -2.0973 0
M  V30 44 H -5.0864 6.0595 0.2069 0
M  V30 END ATOM
M  V30 BEGIN BOND
M  V30 1 1 1 2
M  V30 2 2 2 3
M  V30 3 1 2 4
M  V30 4 1 3 5
M  V30 5 2 4 6
M  V30 6 2 5 7
M  V30 7 1 7 8
M  V30 8 1 8 9
M  V30 9 1 9 10
M  V30 10 1 10 11
M  V30 11 1 11 12
M  V30 12 2 12 13
M  V30 13 1 12 14
M  V30 14 1 14 15
M  V30 15 2 14 16
M  V30 16 2 15 17
M  V30 17 1 15 18
M  V30 18 1 16 19
M  V30 19 1 17 20
M  V30 20 2 18 21
M  V30 21 1 19 22
M  V30 22 2 19 23
M  V30 23 2 20 24
M  V30 24 1 22 25
M  V30 25 1 23 26
M  V30 26 1 6 7
M  V30 27 1 21 24
M  V30 28 2 25 26
M  V30 29 1 3 27
M  V30 30 1 4 28
M  V30 31 1 5 29
M  V30 32 1 6 30
M  V30 33 1 9 31
M  V30 34 1 9 32
M  V30 35 1 10 33
M  V30 36 1 10 34
M  V30 37 1 11 35
M  V30 38 1 16 36
M  V30 39 1 17 37
M  V30 40 1 18 38
M  V30 41 1 20 39
M  V30 42 1 21 40
M  V30 43 1 23 41
M  V30 44 1 24 42
M  V30 45 1 25 43
M  V30 46 1 26 44
M  V30 END BOND
M  V30 END CTAB
M  END
>  <level_0>
4087

>  <index>
4087

>  <NO.>
4088

>  <Name>
ketamine

>  <SMILES>
O=C(NCCSc1ccc(Cl)cc1)/C(=C/c1ccco1)c1ccccc1

>  <logBB>


>  <Class>
1

>  <MW>
383.07

>  <nHBAcc>
3

>  <nHBDon>
1

>  <SLogP>
5.38

>  <TopoPSA>
42.24

>  <MMFF94 Energy>
30.347

$$$$
O=C(Nc1ccc(OC2CCCC2)cc1)c1cc2c(ccc3ccccc32)o1
Actelion Java MolfileCreator 2.0

  0  0  0  0  0  0              0 V3000
M  V30 BEGIN CTAB
M  V30 COUNTS 49 53 0 0 0
M  V30 BEGIN ATOM
M  V30 1 O 0.1605 -0.9635 -2.0081 0
M  V30 2 C 0.8891 -0.7965 -1.0341 0
M  V30 3 N 0.4804 -0.1853 0.145 0
M  V30 4 C 2.2743 -1.2504 -1.0168 0
M  V30 5 C -0.7801 0.3836 0.4202 0
M  V30 6 O 2.7143 -1.9802 -2.0907 0
M  V30 7 C 3.3196 -1.1047 -0.1181 0
M  V30 8 C -1.0766 0.6709 1.7561 0
M  V30 9 C -1.7219 0.7028 -0.558 0
M  V30 10 C 4.0165 -2.2986 -1.8754 0
M  V30 11 C 4.4508 -1.7812 -0.6634 0
M  V30 12 C -2.301 1.2512 2.1018 0
M  V30 13 C -2.9497 1.2848 -0.2088 0
M  V30 14 C 4.8096 -3.0391 -2.7458 0
M  V30 15 C 5.7983 -2.0156 -0.2736 0
M  V30 16 C -3.2468 1.5599 1.1233 0
M  V30 17 C 6.1329 -3.265 -2.3515 0
M  V30 18 C 6.6372 -2.7686 -1.1378 0
M  V30 19 C 6.3056 -1.517 0.9435 0
M  V30 20 O -4.3956 2.1207 1.603 0
M  V30 21 C 7.966 -2.9995 -0.7513 0
M  V30 22 C 7.631 -1.7618 1.3022 0
M  V30 23 C -5.4338 2.4398 0.686 0
M  V30 24 C 8.4577 -2.5003 0.458 0
M  V30 25 C -6.3033 1.2346 0.3384 0
M  V30 26 C -6.4426 3.3539 1.379 0
M  V30 27 C -7.6328 1.8361 -0.1034 0
M  V30 28 C -7.704 3.2223 0.5375 0
M  V30 29 H 1.1324 -0.1885 0.9148 0
M  V30 30 H 3.2925 -0.5709 0.8198 0
M  V30 31 H -0.3707 0.4428 2.5498 0
M  V30 32 H -1.532 0.5208 -1.6119 0
M  V30 33 H -2.521 1.4632 3.1456 0
M  V30 34 H -3.6436 1.5071 -1.0121 0
M  V30 35 H 4.4155 -3.4185 -3.6812 0
M  V30 36 H 6.7765 -3.8418 -3.0139 0
M  V30 37 H 5.6778 -0.9386 1.6153 0
M  V30 38 H 8.6336 -3.5725 -1.3914 0
M  V30 39 H 8.0203 -1.3761 2.2411 0
M  V30 40 H -5.057 2.9566 -0.2059 0
M  V30 41 H 9.4906 -2.6895 0.7403 0
M  V30 42 H -5.8625 0.6056 -0.4405 0
M  V30 43 H -6.4449 0.5961 1.2195 0
M  V30 44 H -6.6277 3.0185 2.4075 0
M  V30 45 H -6.0873 4.3876 1.4405 0
M  V30 46 H -7.6696 1.9283 -1.1949 0
M  V30 47 H -8.4731 1.2041 0.2013 0
M  V30 48 H -8.6066 3.3475 1.1438 0
M  V30 49 H -7.7223 3.991 -0.2437 0
M  V30 END ATOM
M  V30 BEGIN BOND
M  V30 1 2 1 2
M  V30 2 1 2 3
M  V30 3 1 2 4
M  V30 4 1 3 5
M  V30 5 1 4 6
M  V30 6 2 4 7
M  V30 7 2 5 8
M  V30 8 1 5 9
M  V30 9 1 6 10
M  V30 10 1 7 11
M  V30 11 1 8 12
M  V30 12 2 9 13
M  V30 13 1 10 14
M  V30 14 1 11 15
M  V30 15 2 12 16
M  V30 16 2 14 17
M  V30 17 1 15 18
M  V30 18 2 15 19
M  V30 19 1 16 20
M  V30 20 2 18 21
M  V30 21 1 19 22
M  V30 22 1 20 23
M  V30 23 1 21 24
M  V30 24 1 23 25
M  V30 25 1 23 26
M  V30 26 1 25 27
M  V30 27 1 26 28
M  V30 28 2 10 11
M  V30 29 1 13 16
M  V30 30 1 17 18
M  V30 31 2 22 24
M  V30 32 1 27 28
M  V30 33 1 3 29
M  V30 34 1 7 30
M  V30 35 1 8 31
M  V30 36 1 9 32
M  V30 37 1 12 33
M  V30 38 1 13 34
M  V30 39 1 14 35
M  V30 40 1 17 36
M  V30 41 1 19 37
M  V30 42 1 21 38
M  V30 43 1 22 39
M  V30 44 1 23 40
M  V30 45 1 24 41
M  V30 46 1 25 42
M  V30 47 1 25 43
M  V30 48 1 26 44
M  V30 49 1 26 45
M  V30 50 1 27 46
M  V30 51 1 27 47
M  V30 52 1 28 48
M  V30 53 1 28 49
M  V30 END BOND
M  V30 END CTAB
M  END
>  <level_0>
4091

>  <index>
4091

>  <NO.>
4092

>  <Name>
sulphur hexafluoride

>  <SMILES>
O=C(Nc1ccc(OC2CCCC2)cc1)c1cc2c(ccc3ccccc32)o1

>  <logBB>


>  <Class>
1

>  <MW>
371.15

>  <nHBAcc>
3

>  <nHBDon>
1

>  <SLogP>
6.16

>  <TopoPSA>
51.47

>  <MMFF94 Energy>
60.49

$$$$
CC1COC(=O)C(C(C)C)NC(=O)C(C)OC(=O)C(C(C)C)NC(=O)C(C(C)C)OC(=O)C(C(C)C)NC(=O)C(C)OC(=O)C(C(C)C)NC(=O)C(C)COC(=O)C(C(C)C)NC(=O)C(C)OC(=O)C(C(C)C)NC1=O
Actelion Java MolfileCreator 2.0

  0  0  0  0  0  0              0 V3000
M  V30 BEGIN CTAB
M  V30 COUNTS 162 162 0 0 0
M  V30 BEGIN ATOM
M  V30 1 O 3.1481 5.0407 4.5673 0
M  V30 2 C 2.5395 4.8709 3.5083 0
M  V30 3 O 2.2259 5.9315 2.7254 0
M  V30 4 C 1.9696 3.4907 3.1329 0
M  V30 5 C 1.8994 5.8074 1.3223 0
M  V30 6 N 2.8505 2.4754 3.7172 0
M  V30 7 C 0.5081 3.3561 3.6253 0
M  V30 8 C 3.0954 5.2455 0.5214 0
M  V30 9 C 1.4654 7.211 0.8363 0
M  V30 10 C 3.749 1.7534 2.962 0
M  V30 11 C -0.1444 2.084 3.0776 0
M  V30 12 C 0.36 3.3873 5.1511 0
M  V30 13 O 4.2521 5.3115 0.9274 0
M  V30 14 N 2.7468 4.6266 -0.6551 0
M  V30 15 C 2.5895 8.2484 0.9294 0
M  V30 16 C 0.8685 7.2003 -0.5709 0
M  V30 17 O 3.8336 1.8507 1.7415 0
M  V30 18 C 4.6416 0.803 3.7809 0
M  V30 19 C 3.7042 3.8397 -1.443 0
M  V30 20 O 5.1722 -0.2797 3.0075 0
M  V30 21 C 5.8232 1.5924 4.3314 0
M  V30 22 C 2.8652 2.6684 -1.9732 0
M  V30 23 C 4.3353 4.6451 -2.6031 0
M  V30 24 C 4.2362 -1.1769 2.5772 0
M  V30 25 O 2.291 2.6378 -3.0554 0
M  V30 26 O 2.6724 1.7593 -0.9777 0
M  V30 27 C 5.0281 5.9253 -2.1261 0
M  V30 28 C 5.3564 3.7903 -3.3661 0
M  V30 29 O 3.0479 -1.1223 2.8716 0
M  V30 30 C 4.9101 -2.3144 1.7785 0
M  V30 31 C 1.4739 0.9857 -1.1032 0
M  V30 32 N 4.095 -3.5278 1.9745 0
M  V30 33 C 5.2637 -1.9665 0.3142 0
M  V30 34 C 0.2262 1.8943 -1.0094 0
M  V30 35 C 1.463 -0.0024 0.0531 0
M  V30 36 C 2.9464 -3.8258 1.266 0
M  V30 37 C 6.2046 -0.7592 0.213 0
M  V30 38 C 5.9279 -3.1577 -0.3905 0
M  V30 39 O 0.2813 3.0429 -0.5508 0
M  V30 40 N -0.9758 1.435 -1.4622 0
M  V30 41 O 2.605 -3.2612 0.2339 0
M  V30 42 C 2.1494 -4.9727 1.8777 0
M  V30 43 C -1.3077 0.1436 -2.0852 0
M  V30 44 C 0.7136 -4.996 1.344 0
M  V30 45 C 2.8532 -6.2954 1.5823 0
M  V30 46 C -2.4704 -0.528 -1.3185 0
M  V30 47 C -1.6769 0.34 -3.5802 0
M  V30 48 O 0.022 -3.8173 1.8023 0
M  V30 49 O -2.8616 -1.6735 -1.5285 0
M  V30 50 O -3.058 0.3265 -0.4286 0
M  V30 51 C -0.6667 1.2263 -4.3223 0
M  V30 52 C -1.7733 -0.9965 -4.3271 0
M  V30 53 C -1.1562 -3.4594 1.2298 0
M  V30 54 C -4.2286 -0.1642 0.2433 0
M  V30 55 O -1.4607 -2.2743 1.0933 0
M  V30 56 C -2.1485 -4.593 0.9118 0
M  V30 57 C -5.4896 0.5465 -0.2636 0
M  V30 58 N -2.7746 -4.2757 -0.3729 0
M  V30 59 C -3.1983 -4.679 2.0544 0
M  V30 60 C -5.5468 0.5595 -1.7869 0
M  V30 61 C -5.5317 1.9852 0.2632 0
M  V30 62 C -3.176 -5.244 -1.2691 0
M  V30 63 C -4.3166 -5.6857 1.7602 0
M  V30 64 C -2.5435 -5.0554 3.3903 0
M  V30 65 O -5.1882 1.5376 -2.4451 0
M  V30 66 N -5.9841 -0.5304 -2.4686 0
M  V30 67 O -2.9197 -6.4344 -1.1062 0
M  V30 68 C -3.9523 -4.6964 -2.4755 0
M  V30 69 C -6.322 -1.8802 -2.0056 0
M  V30 70 O -4.9836 -3.8438 -1.9421 0
M  V30 71 C -4.5811 -5.8214 -3.2856 0
M  V30 72 C -5.41 -2.8525 -2.7681 0
M  V30 73 C -7.8237 -2.1802 -2.1816 0
M  V30 74 O -5.1086 -2.7363 -3.9498 0
M  V30 75 C -8.2837 -2.1952 -3.6423 0
M  V30 76 C -8.2113 -3.4959 -1.5007 0
M  V30 77 H 2.0055 3.3601 2.0505 0
M  V30 78 H 1.0393 5.136 1.2238 0
M  V30 79 H 2.9615 2.4943 4.7241 0
M  V30 80 H -0.0617 4.2082 3.2318 0
M  V30 81 H 0.6755 7.5521 1.5204 0
M  V30 82 H -1.1925 2.0195 3.3894 0
M  V30 83 H 0.3669 1.1824 3.4307 0
M  V30 84 H -0.128 2.0814 1.9849 0
M  V30 85 H 0.7681 4.3096 5.5749 0
M  V30 86 H 0.8609 2.5381 5.6267 0
M  V30 87 H -0.6982 3.3435 5.4323 0
M  V30 88 H 1.7558 4.4884 -0.858 0
M  V30 89 H 3.4118 8.0164 0.2456 0
M  V30 90 H 2.2139 9.2442 0.6697 0
M  V30 91 H 2.9957 8.3049 1.9444 0
M  V30 92 H 0.4173 8.172 -0.8009 0
M  V30 93 H 0.0832 6.4423 -0.658 0
M  V30 94 H 1.6263 7.0046 -1.3355 0
M  V30 95 H 4.0703 0.3972 4.6258 0
M  V30 96 H 4.4915 3.4468 -0.7882 0
M  V30 97 H 6.4303 2.0032 3.5165 0
M  V30 98 H 5.4952 2.4237 4.9635 0
M  V30 99 H 6.479 0.9415 4.9195 0
M  V30 100 H 3.5483 4.9423 -3.3089 0
M  V30 101 H 5.7987 5.7064 -1.3795 0
M  V30 102 H 4.3111 6.6268 -1.6899 0
M  V30 103 H 5.51 6.4412 -2.9639 0
M  V30 104 H 5.8004 4.3596 -4.19 0
M  V30 105 H 4.8931 2.8993 -3.8004 0
M  V30 106 H 6.1679 3.4626 -2.7072 0
M  V30 107 H 5.8405 -2.548 2.315 0
M  V30 108 H 1.4969 0.4455 -2.055 0
M  V30 109 H 4.2607 -4.0398 2.8307 0
M  V30 110 H 4.359 -1.7033 -0.2414 0
M  V30 111 H 1.4611 0.5207 1.0143 0
M  V30 112 H 2.3674 -0.6135 0.0322 0
M  V30 113 H 0.5932 -0.6628 0.0304 0
M  V30 114 H 6.5202 -0.5967 -0.8235 0
M  V30 115 H 7.1043 -0.9024 0.8206 0
M  V30 116 H 5.7084 0.1592 0.5384 0
M  V30 117 H 5.2646 -4.0266 -0.4313 0
M  V30 118 H 6.1875 -2.9017 -1.4236 0
M  V30 119 H 6.8478 -3.4571 0.1232 0
M  V30 120 H -1.7478 2.0777 -1.3167 0
M  V30 121 H 2.1157 -4.8104 2.9631 0
M  V30 122 H -0.45 -0.5267 -1.9957 0
M  V30 123 H 0.2066 -5.8739 1.7584 0
M  V30 124 H 0.6874 -5.0386 0.2488 0
M  V30 125 H 2.9343 -6.4669 0.5031 0
M  V30 126 H 3.8684 -6.3071 1.9929 0
M  V30 127 H 2.3062 -7.1358 2.0223 0
M  V30 128 H -2.6564 0.8319 -3.6429 0
M  V30 129 H -0.9351 1.3187 -5.3805 0
M  V30 130 H -0.6424 2.2406 -3.9121 0
M  V30 131 H 0.3427 0.8059 -4.2683 0
M  V30 132 H -0.8451 -1.5703 -4.2339 0
M  V30 133 H -2.594 -1.6115 -3.953 0
M  V30 134 H -1.9631 -0.834 -5.3939 0
M  V30 135 H -4.0893 0.0347 1.3123 0
M  V30 136 H -4.3266 -1.2505 0.1578 0
M  V30 137 H -1.6442 -5.5533 0.7984 0
M  V30 138 H -6.3778 0.0331 0.1223 0
M  V30 139 H -2.9093 -3.2916 -0.6225 0
M  V30 140 H -3.6694 -3.6943 2.18 0
M  V30 141 H -4.6531 2.5597 -0.0507 0
M  V30 142 H -6.4199 2.5085 -0.1078 0
M  V30 143 H -5.5689 1.9963 1.3578 0
M  V30 144 H -4.917 -5.3766 0.8994 0
M  V30 145 H -5.0021 -5.7651 2.6114 0
M  V30 146 H -3.9108 -6.6833 1.5624 0
M  V30 147 H -1.8322 -4.2916 3.7186 0
M  V30 148 H -3.2968 -5.1505 4.1802 0
M  V30 149 H -2.0118 -6.0099 3.315 0
M  V30 150 H -5.9303 -0.4074 -3.4769 0
M  V30 151 H -3.2426 -4.1227 -3.0846 0
M  V30 152 H -6.0702 -1.9458 -0.9445 0
M  V30 153 H -5.2859 -6.3957 -2.6734 0
M  V30 154 H -3.8203 -6.5087 -3.6687 0
M  V30 155 H -5.1492 -5.4269 -4.1339 0
M  V30 156 H -8.3805 -1.3783 -1.6774 0
M  V30 157 H -8.0436 -1.2541 -4.1466 0
M  V30 158 H -9.3699 -2.328 -3.6985 0
M  V30 159 H -7.8237 -3.0139 -4.2048 0
M  V30 160 H -7.7458 -4.3574 -1.9904 0
M  V30 161 H -7.9077 -3.4952 -0.4485 0
M  V30 162 H -9.2966 -3.6411 -1.5329 0
M  V30 END ATOM
M  V30 BEGIN BOND
M  V30 1 2 1 2
M  V30 2 1 2 3
M  V30 3 1 2 4
M  V30 4 1 3 5
M  V30 5 1 4 6
M  V30 6 1 4 7
M  V30 7 1 5 8
M  V30 8 1 5 9
M  V30 9 1 6 10
M  V30 10 1 7 11
M  V30 11 1 7 12
M  V30 12 2 8 13
M  V30 13 1 8 14
M  V30 14 1 9 15
M  V30 15 1 9 16
M  V30 16 2 10 17
M  V30 17 1 10 18
M  V30 18 1 14 19
M  V30 19 1 18 20
M  V30 20 1 18 21
M  V30 21 1 19 22
M  V30 22 1 19 23
M  V30 23 1 20 24
M  V30 24 2 22 25
M  V30 25 1 22 26
M  V30 26 1 23 27
M  V30 27 1 23 28
M  V30 28 2 24 29
M  V30 29 1 24 30
M  V30 30 1 26 31
M  V30 31 1 30 32
M  V30 32 1 30 33
M  V30 33 1 31 34
M  V30 34 1 31 35
M  V30 35 1 32 36
M  V30 36 1 33 37
M  V30 37 1 33 38
M  V30 38 2 34 39
M  V30 39 1 34 40
M  V30 40 2 36 41
M  V30 41 1 36 42
M  V30 42 1 40 43
M  V30 43 1 42 44
M  V30 44 1 42 45
M  V30 45 1 43 46
M  V30 46 1 43 47
M  V30 47 1 44 48
M  V30 48 2 46 49
M  V30 49 1 46 50
M  V30 50 1 47 51
M  V30 51 1 47 52
M  V30 52 1 48 53
M  V30 53 1 50 54
M  V30 54 2 53 55
M  V30 55 1 53 56
M  V30 56 1 54 57
M  V30 57 1 56 58
M  V30 58 1 56 59
M  V30 59 1 57 60
M  V30 60 1 57 61
M  V30 61 1 58 62
M  V30 62 1 59 63
M  V30 63 1 59 64
M  V30 64 2 60 65
M  V30 65 1 60 66
M  V30 66 2 62 67
M  V30 67 1 62 68
M  V30 68 1 66 69
M  V30 69 1 68 70
M  V30 70 1 68 71
M  V30 71 1 69 72
M  V30 72 1 69 73
M  V30 73 2 72 74
M  V30 74 1 73 75
M  V30 75 1 73 76
M  V30 76 1 70 72
M  V30 77 1 4 77
M  V30 78 1 5 78
M  V30 79 1 6 79
M  V30 80 1 7 80
M  V30 81 1 9 81
M  V30 82 1 11 82
M  V30 83 1 11 83
M  V30 84 1 11 84
M  V30 85 1 12 85
M  V30 86 1 12 86
M  V30 87 1 12 87
M  V30 88 1 14 88
M  V30 89 1 15 89
M  V30 90 1 15 90
M  V30 91 1 15 91
M  V30 92 1 16 92
M  V30 93 1 16 93
M  V30 94 1 16 94
M  V30 95 1 18 95
M  V30 96 1 19 96
M  V30 97 1 21 97
M  V30 98 1 21 98
M  V30 99 1 21 99
M  V30 100 1 23 100
M  V30 101 1 27 101
M  V30 102 1 27 102
M  V30 103 1 27 103
M  V30 104 1 28 104
M  V30 105 1 28 105
M  V30 106 1 28 106
M  V30 107 1 30 107
M  V30 108 1 31 108
M  V30 109 1 32 109
M  V30 110 1 33 110
M  V30 111 1 35 111
M  V30 112 1 35 112
M  V30 113 1 35 113
M  V30 114 1 37 114
M  V30 115 1 37 115
M  V30 116 1 37 116
M  V30 117 1 38 117
M  V30 118 1 38 118
M  V30 119 1 38 119
M  V30 120 1 40 120
M  V30 121 1 42 121
M  V30 122 1 43 122
M  V30 123 1 44 123
M  V30 124 1 44 124
M  V30 125 1 45 125
M  V30 126 1 45 126
M  V30 127 1 45 127
M  V30 128 1 47 128
M  V30 129 1 51 129
M  V30 130 1 51 130
M  V30 131 1 51 131
M  V30 132 1 52 132
M  V30 133 1 52 133
M  V30 134 1 52 134
M  V30 135 1 54 135
M  V30 136 1 54 136
M  V30 137 1 56 137
M  V30 138 1 57 138
M  V30 139 1 58 139
M  V30 140 1 59 140
M  V30 141 1 61 141
M  V30 142 1 61 142
M  V30 143 1 61 143
M  V30 144 1 63 144
M  V30 145 1 63 145
M  V30 146 1 63 146
M  V30 147 1 64 147
M  V30 148 1 64 148
M  V30 149 1 64 149
M  V30 150 1 66 150
M  V30 151 1 68 151
M  V30 152 1 69 152
M  V30 153 1 71 153
M  V30 154 1 71 154
M  V30 155 1 71 155
M  V30 156 1 73 156
M  V30 157 1 75 157
M  V30 158 1 75 158
M  V30 159 1 75 159
M  V30 160 1 76 160
M  V30 161 1 76 161
M  V30 162 1 76 162
M  V30 END BOND
M  V30 END CTAB
M  END
>  <level_0>
4318

>  <index>
4318

>  <NO.>
4319

>  <Name>
valinomycin

>  <SMILES>
CC1COC(=O)C(C(C)C)NC(=O)C(C)OC(=O)C(C(C)C)NC(=O)C(C(C)C)OC(=O)C(C(C)C)NC(=O)C(C)OC(=O)C(C(C)C)NC(=O)C(C)COC(=O)C(C(C)C)NC(=O)C(C)OC(=O)C(C(C)C)NC1=O

>  <logBB>


>  <Class>
-1

>  <MW>
1082.6

>  <nHBAcc>
18

>  <nHBDon>
6

>  <SLogP>
1.57

>  <TopoPSA>
332.4

>  <MMFF94 Energy>
152.84

$$$$
CCC(NC(=O)C1CCCN1C(=O)C(Cc1ccccc1)NC(=O)C(N)CC(C)C)C(=O)NC(CCCN)C(=O)NC(CC(C)C)C(=O)NC(Cc1ccccc1)C(=O)N1CCCC1C(=O)NC(CC)C(=O)NC(C=O)CCCN
Actelion Java MolfileCreator 2.0

  0  0  0  0  0  0              0 V3000
M  V30 BEGIN CTAB
M  V30 COUNTS 170 173 0 0 0
M  V30 BEGIN ATOM
M  V30 1 O 0.0 -5.5175 2.2829 0
M  V30 2 C -1.0436 -4.8826 2.4254 0
M  V30 3 N -1.8402 -4.5193 1.3619 0
M  V30 4 C -1.4616 -4.319 3.7989 0
M  V30 5 C -1.4205 -4.7348 -0.0269 0
M  V30 6 N -2.7532 -3.6175 3.8238 0
M  V30 7 C -0.435 -3.2451 4.1957 0
M  V30 8 C -0.6872 -3.4693 -0.5319 0
M  V30 9 C -2.645 -5.0407 -0.8908 0
M  V30 10 C -3.9419 -4.3168 3.7961 0
M  V30 11 C -2.5694 -2.2035 4.1188 0
M  V30 12 C -1.2578 -2.1654 4.8804 0
M  V30 13 O 0.0673 -3.4651 -1.5025 0
M  V30 14 N -1.0307 -2.3103 0.1236 0
M  V30 15 C -2.2889 -5.548 -2.2803 0
M  V30 16 O -3.9565 -5.5472 3.6906 0
M  V30 17 C -5.2628 -3.5178 3.8193 0
M  V30 18 C -0.561 -0.9759 -0.2477 0
M  V30 19 N -6.0499 -3.9632 2.6658 0
M  V30 20 C -6.0207 -3.7898 5.1268 0
M  V30 21 C 0.8536 -0.7561 0.3348 0
M  V30 22 C -1.5454 0.0812 0.2634 0
M  V30 23 C -5.7274 -3.5735 1.3829 0
M  V30 24 C -5.3711 -3.1561 6.3323 0
M  V30 25 O 1.164 0.1958 1.0504 0
M  V30 26 N 1.7922 -1.6634 -0.1025 0
M  V30 27 C -2.9035 -0.0059 -0.4466 0
M  V30 28 O -4.7396 -2.8859 1.134 0
M  V30 29 C -6.6938 -4.1398 0.3176 0
M  V30 30 C -4.4586 -3.8819 7.1103 0
M  V30 31 C -5.6443 -1.8231 6.6683 0
M  V30 32 C 3.2023 -1.6098 0.2755 0
M  V30 33 C -4.0109 0.7342 0.3013 0
M  V30 34 N -6.3766 -5.5676 0.1107 0
M  V30 35 C -6.594 -3.3941 -1.0214 0
M  V30 36 C -3.8292 -3.2835 8.2022 0
M  V30 37 C -5.0131 -1.2275 7.7612 0
M  V30 38 C 3.908 -0.6311 -0.6933 0
M  V30 39 C 3.8375 -3.0055 0.234 0
M  V30 40 N -4.3238 0.0724 1.5677 0
M  V30 41 C -7.0522 -1.9206 -0.9695 0
M  V30 42 C -4.1054 -1.9569 8.5266 0
M  V30 43 O 4.7829 -0.9648 -1.487 0
M  V30 44 N 3.4562 0.666 -0.5804 0
M  V30 45 C 3.1764 -4.0404 1.1687 0
M  V30 46 C -6.7324 -1.233 -2.2996 0
M  V30 47 C -8.5449 -1.786 -0.665 0
M  V30 48 C 3.7929 1.7085 -1.5405 0
M  V30 49 C 3.84 -5.4068 0.9808 0
M  V30 50 C 3.2449 -3.6302 2.64 0
M  V30 51 C 2.6967 1.6619 -2.6272 0
M  V30 52 C 3.7419 3.1059 -0.8999 0
M  V30 53 O 1.5081 1.8229 -2.3274 0
M  V30 54 N 3.073 1.47 -3.941 0
M  V30 55 C 4.9756 3.4405 -0.0955 0
M  V30 56 C 2.0715 1.5292 -5.0212 0
M  V30 57 C 4.3399 0.9427 -4.4216 0
M  V30 58 C 5.083 3.0482 1.2448 0
M  V30 59 C 6.0356 4.1412 -0.6874 0
M  V30 60 C 1.5695 2.9668 -5.272 0
M  V30 61 C 2.8214 1.0284 -6.2602 0
M  V30 62 C 3.964 0.1987 -5.6921 0
M  V30 63 C 6.2279 3.3563 1.9811 0
M  V30 64 C 7.1794 4.4481 0.0507 0
M  V30 65 O 0.5232 3.2148 -5.8654 0
M  V30 66 N 2.4727 3.9408 -4.9205 0
M  V30 67 C 7.2756 4.0556 1.3845 0
M  V30 68 C 2.2186 5.3682 -5.0067 0
M  V30 69 C 3.1831 6.0353 -4.0097 0
M  V30 70 C 2.3819 5.9269 -6.4234 0
M  V30 71 O 4.2231 5.486 -3.6389 0
M  V30 72 N 2.8085 7.2777 -3.5641 0
M  V30 73 C 3.7575 5.6865 -7.0346 0
M  V30 74 C 3.5849 7.9953 -2.5601 0
M  V30 75 C 3.208 9.4685 -2.6497 0
M  V30 76 C 3.2972 7.458 -1.1532 0
M  V30 77 O 2.2258 9.8831 -3.2639 0
M  V30 78 C 4.4376 7.7606 -0.1781 0
M  V30 79 C 4.1315 7.2068 1.2122 0
M  V30 80 N 5.2753 7.4175 2.0919 0
M  V30 81 H -2.7239 -4.0536 1.5516 0
M  V30 82 H -1.494 -5.1419 4.5217 0
M  V30 83 H -0.7065 -5.5654 -0.0568 0
M  V30 84 H 0.345 -3.6472 4.8499 0
M  V30 85 H 0.0624 -2.8197 3.3147 0
M  V30 86 H -3.2503 -5.8078 -0.3933 0
M  V30 87 H -3.2753 -4.1492 -0.9872 0
M  V30 88 H -3.3848 -1.7749 4.7002 0
M  V30 89 H -2.4881 -1.6761 3.1636 0
M  V30 90 H -0.7803 -1.1823 4.8507 0
M  V30 91 H -1.4224 -2.4372 5.93 0
M  V30 92 H -1.6046 -2.3985 0.9522 0
M  V30 93 H -3.1987 -5.829 -2.8206 0
M  V30 94 H -1.6433 -6.43 -2.2235 0
M  V30 95 H -1.7779 -4.7814 -2.8695 0
M  V30 96 H -5.0903 -2.4479 3.6798 0
M  V30 97 H -0.4778 -0.9223 -1.3402 0
M  V30 98 H -6.7597 -4.674 2.8006 0
M  V30 99 H -6.127 -4.87 5.2958 0
M  V30 100 H -7.0485 -3.4107 5.0445 0
M  V30 101 H -1.6662 -0.037 1.3475 0
M  V30 102 H -1.1341 1.0867 0.1081 0
M  V30 103 H 1.5005 -2.3469 -0.8032 0
M  V30 104 H -2.8027 0.4223 -1.4515 0
M  V30 105 H -3.2082 -1.0498 -0.589 0
M  V30 106 H -7.7141 -4.0844 0.7101 0
M  V30 107 H -4.2278 -4.9186 6.8702 0
M  V30 108 H -6.3486 -1.2372 6.0816 0
M  V30 109 H 3.2884 -1.1806 1.2805 0
M  V30 110 H -4.9127 0.7542 -0.3201 0
M  V30 111 H -3.7174 1.7715 0.4934 0
M  V30 112 H -5.4944 -5.6464 -0.3957 0
M  V30 113 H -6.2144 -6.029 1.0064 0
M  V30 114 H -7.1936 -3.9221 -1.7757 0
M  V30 115 H -5.5559 -3.4251 -1.3775 0
M  V30 116 H -3.1233 -3.8536 8.8012 0
M  V30 117 H -5.2302 -0.1935 8.0176 0
M  V30 118 H 4.904 -2.9199 0.4815 0
M  V30 119 H 3.794 -3.3884 -0.7949 0
M  V30 120 H -5.1754 0.4817 1.9487 0
M  V30 121 H -4.5432 -0.9135 1.3783 0
M  V30 122 H -6.4981 -1.3927 -0.1859 0
M  V30 123 H -3.6158 -1.4925 9.3789 0
M  V30 124 H 2.6664 0.8336 0.0441 0
M  V30 125 H 2.1206 -4.1483 0.8932 0
M  V30 126 H -5.6586 -1.2764 -2.511 0
M  V30 127 H -7.2628 -1.7088 -3.1313 0
M  V30 128 H -7.0221 -0.1772 -2.2717 0
M  V30 129 H -8.7825 -2.1522 0.338 0
M  V30 130 H -9.1498 -2.3459 -1.3861 0
M  V30 131 H -8.8561 -0.7364 -0.7071 0
M  V30 132 H 4.7833 1.5175 -1.9586 0
M  V30 133 H 3.7629 -5.7367 -0.0604 0
M  V30 134 H 4.9012 -5.3741 1.2496 0
M  V30 135 H 3.3548 -6.164 1.6059 0
M  V30 136 H 2.6655 -2.7216 2.8286 0
M  V30 137 H 4.2783 -3.4484 2.9536 0
M  V30 138 H 2.8302 -4.4154 3.2816 0
M  V30 139 H 2.8573 3.2103 -0.2565 0
M  V30 140 H 3.6191 3.8682 -1.6781 0
M  V30 141 H 1.2244 0.8878 -4.7547 0
M  V30 142 H 4.9958 1.7934 -4.6345 0
M  V30 143 H 4.8211 0.2849 -3.6981 0
M  V30 144 H 4.2756 2.4965 1.7221 0
M  V30 145 H 5.9747 4.4556 -1.7281 0
M  V30 146 H 2.174 0.4432 -6.9207 0
M  V30 147 H 3.2267 1.8596 -6.8507 0
M  V30 148 H 4.8033 0.0969 -6.3853 0
M  V30 149 H 3.5999 -0.8056 -5.4439 0
M  V30 150 H 6.3048 3.0426 3.019 0
M  V30 151 H 7.9977 4.9884 -0.4181 0
M  V30 152 H 3.3316 3.6521 -4.4612 0
M  V30 153 H 8.17 4.2874 1.9567 0
M  V30 154 H 1.1915 5.5456 -4.6648 0
M  V30 155 H 2.1882 7.0063 -6.4162 0
M  V30 156 H 1.63 5.4751 -7.0814 0
M  V30 157 H 1.9738 7.7348 -3.9246 0
M  V30 158 H 3.7934 6.102 -8.0469 0
M  V30 159 H 4.5456 6.1695 -6.4491 0
M  V30 160 H 3.9833 4.6181 -7.1048 0
M  V30 161 H 4.6447 7.897 -2.8202 0
M  V30 162 H 3.8696 10.163 -2.1043 0
M  V30 163 H 2.3596 7.8808 -0.7697 0
M  V30 164 H 3.1545 6.3709 -1.1867 0
M  V30 165 H 5.365 7.3164 -0.561 0
M  V30 166 H 4.6011 8.8433 -0.1156 0
M  V30 167 H 3.9028 6.1375 1.1622 0
M  V30 168 H 3.2562 7.7141 1.6321 0
M  V30 169 H 5.0541 7.0374 3.0126 0
M  V30 170 H 6.0523 6.8457 1.7535 0
M  V30 END ATOM
M  V30 BEGIN BOND
M  V30 1 2 1 2
M  V30 2 1 2 3
M  V30 3 1 2 4
M  V30 4 1 3 5
M  V30 5 1 4 6
M  V30 6 1 4 7
M  V30 7 1 5 8
M  V30 8 1 5 9
M  V30 9 1 6 10
M  V30 10 1 6 11
M  V30 11 1 7 12
M  V30 12 2 8 13
M  V30 13 1 8 14
M  V30 14 1 9 15
M  V30 15 2 10 16
M  V30 16 1 10 17
M  V30 17 1 14 18
M  V30 18 1 17 19
M  V30 19 1 17 20
M  V30 20 1 18 21
M  V30 21 1 18 22
M  V30 22 1 19 23
M  V30 23 1 20 24
M  V30 24 2 21 25
M  V30 25 1 21 26
M  V30 26 1 22 27
M  V30 27 2 23 28
M  V30 28 1 23 29
M  V30 29 2 24 30
M  V30 30 1 24 31
M  V30 31 1 26 32
M  V30 32 1 27 33
M  V30 33 1 29 34
M  V30 34 1 29 35
M  V30 35 1 30 36
M  V30 36 2 31 37
M  V30 37 1 32 38
M  V30 38 1 32 39
M  V30 39 1 33 40
M  V30 40 1 35 41
M  V30 41 2 36 42
M  V30 42 2 38 43
M  V30 43 1 38 44
M  V30 44 1 39 45
M  V30 45 1 41 46
M  V30 46 1 41 47
M  V30 47 1 44 48
M  V30 48 1 45 49
M  V30 49 1 45 50
M  V30 50 1 48 51
M  V30 51 1 48 52
M  V30 52 2 51 53
M  V30 53 1 51 54
M  V30 54 1 52 55
M  V30 55 1 54 56
M  V30 56 1 54 57
M  V30 57 2 55 58
M  V30 58 1 55 59
M  V30 59 1 56 60
M  V30 60 1 56 61
M  V30 61 1 57 62
M  V30 62 1 58 63
M  V30 63 2 59 64
M  V30 64 2 60 65
M  V30 65 1 60 66
M  V30 66 2 63 67
M  V30 67 1 66 68
M  V30 68 1 68 69
M  V30 69 1 68 70
M  V30 70 2 69 71
M  V30 71 1 69 72
M  V30 72 1 70 73
M  V30 73 1 72 74
M  V30 74 1 74 75
M  V30 75 1 74 76
M  V30 76 2 75 77
M  V30 77 1 76 78
M  V30 78 1 78 79
M  V30 79 1 79 80
M  V30 80 1 11 12
M  V30 81 1 37 42
M  V30 82 1 61 62
M  V30 83 1 64 67
M  V30 84 1 3 81
M  V30 85 1 4 82
M  V30 86 1 5 83
M  V30 87 1 7 84
M  V30 88 1 7 85
M  V30 89 1 9 86
M  V30 90 1 9 87
M  V30 91 1 11 88
M  V30 92 1 11 89
M  V30 93 1 12 90
M  V30 94 1 12 91
M  V30 95 1 14 92
M  V30 96 1 15 93
M  V30 97 1 15 94
M  V30 98 1 15 95
M  V30 99 1 17 96
M  V30 100 1 18 97
M  V30 101 1 19 98
M  V30 102 1 20 99
M  V30 103 1 20 100
M  V30 104 1 22 101
M  V30 105 1 22 102
M  V30 106 1 26 103
M  V30 107 1 27 104
M  V30 108 1 27 105
M  V30 109 1 29 106
M  V30 110 1 30 107
M  V30 111 1 31 108
M  V30 112 1 32 109
M  V30 113 1 33 110
M  V30 114 1 33 111
M  V30 115 1 34 112
M  V30 116 1 34 113
M  V30 117 1 35 114
M  V30 118 1 35 115
M  V30 119 1 36 116
M  V30 120 1 37 117
M  V30 121 1 39 118
M  V30 122 1 39 119
M  V30 123 1 40 120
M  V30 124 1 40 121
M  V30 125 1 41 122
M  V30 126 1 42 123
M  V30 127 1 44 124
M  V30 128 1 45 125
M  V30 129 1 46 126
M  V30 130 1 46 127
M  V30 131 1 46 128
M  V30 132 1 47 129
M  V30 133 1 47 130
M  V30 134 1 47 131
M  V30 135 1 48 132
M  V30 136 1 49 133
M  V30 137 1 49 134
M  V30 138 1 49 135
M  V30 139 1 50 136
M  V30 140 1 50 137
M  V30 141 1 50 138
M  V30 142 1 52 139
M  V30 143 1 52 140
M  V30 144 1 56 141
M  V30 145 1 57 142
M  V30 146 1 57 143
M  V30 147 1 58 144
M  V30 148 1 59 145
M  V30 149 1 61 146
M  V30 150 1 61 147
M  V30 151 1 62 148
M  V30 152 1 62 149
M  V30 153 1 63 150
M  V30 154 1 64 151
M  V30 155 1 66 152
M  V30 156 1 67 153
M  V30 157 1 68 154
M  V30 158 1 70 155
M  V30 159 1 70 156
M  V30 160 1 72 157
M  V30 161 1 73 158
M  V30 162 1 73 159
M  V30 163 1 73 160
M  V30 164 1 74 161
M  V30 165 1 75 162
M  V30 166 1 76 163
M  V30 167 1 76 164
M  V30 168 1 78 165
M  V30 169 1 78 166
M  V30 170 1 79 167
M  V30 171 1 79 168
M  V30 172 1 80 169
M  V30 173 1 80 170
M  V30 END BOND
M  V30 END CTAB
M  END
>  <level_0>
4348

>  <index>
4348

>  <NO.>
4349

>  <Name>
gramicidin-s-3

>  <SMILES>
CCC(NC(=O)C1CCCN1C(=O)C(Cc1ccccc1)NC(=O)C(N)CC(C)C)C(=O)NC(CCCN)C(=O)NC(CC(C)C)C(=O)NC(Cc1ccccc1)C(=O)N1CCCC1C(=O)NC(CC)C(=O)NC(C=O)CCCN

>  <logBB>


>  <Class>
-1

>  <MW>
1114.69

>  <nHBAcc>
13

>  <nHBDon>
10

>  <SLogP>
0.76

>  <TopoPSA>
339.45

>  <MMFF94 Energy>
172.59

$$$$
CN(C)C1C(=O)C(C(=O)NCNCCCCC(N)C(=O)O)=C(O)C2(O)C(=O)C3=C(O)c4c(O)cccc4C(C)(O)C3CC12
Actelion Java MolfileCreator 2.0

  0  0  0  0  0  0              0 V3000
M  V30 BEGIN CTAB
M  V30 COUNTS 81 84 0 0 0
M  V30 BEGIN ATOM
M  V30 1 O -0.638 -0.3987 4.1529 0
M  V30 2 C -0.2773 -1.3755 3.4996 0
M  V30 3 C -0.7502 -2.7506 3.8478 0
M  V30 4 C 0.484 -1.2865 2.1604 0
M  V30 5 C -0.5965 -3.22 5.0932 0
M  V30 6 C -1.4812 -3.4878 2.754 0
M  V30 7 O 1.56 -2.2258 2.1273 0
M  V30 8 C 1.1216 0.0633 1.92 0
M  V30 9 C -0.6021 -1.668 1.1305 0
M  V30 10 O 0.1286 -2.5238 6.0356 0
M  V30 11 C -1.2609 -4.4825 5.5029 0
M  V30 12 C -1.5659 -5.028 3.0244 0
M  V30 13 C -0.9747 -3.1589 1.3179 0
M  V30 14 O 1.9797 0.4396 2.9524 0
M  V30 15 C 0.9572 0.7933 0.7933 0
M  V30 16 C -0.1076 -1.3254 -0.2843 0
M  V30 17 C -1.418 -4.861 6.8525 0
M  V30 18 C -1.7832 -5.3396 4.5077 0
M  V30 19 O -2.6825 -5.5217 2.2656 0
M  V30 20 C -0.3285 -5.8157 2.5618 0
M  V30 21 C 0.1792 0.1942 -0.3415 0
M  V30 22 C 1.621 2.1344 0.6908 0
M  V30 23 N -1.0379 -1.8105 -1.3397 0
M  V30 24 O -0.9185 -4.0512 7.8451 0
M  V30 25 C -2.0703 -6.0408 7.2162 0
M  V30 26 C -2.4281 -6.5359 4.888 0
M  V30 27 O -0.1387 0.911 -1.2925 0
M  V30 28 O 2.3295 2.5585 1.6047 0
M  V30 29 N 1.4005 2.8418 -0.4535 0
M  V30 30 C -2.3498 -1.1681 -1.3764 0
M  V30 31 C -0.4255 -1.8181 -2.6684 0
M  V30 32 C -2.5765 -6.878 6.2297 0
M  V30 33 C 2.0133 4.1011 -0.699 0
M  V30 34 N 1.3036 4.6098 -1.8477 0
M  V30 35 C 1.8553 5.8948 -2.2723 0
M  V30 36 C 1.0941 6.4465 -3.4823 0
M  V30 37 C 1.2247 5.5622 -4.7277 0
M  V30 38 C 0.4974 6.1837 -5.9259 0
M  V30 39 C 0.5477 5.2929 -7.1747 0
M  V30 40 N -0.3156 5.8578 -8.2358 0
M  V30 41 C 1.9812 5.1954 -7.7064 0
M  V30 42 O 2.5839 6.0594 -8.3268 0
M  V30 43 O 2.5831 4.0292 -7.3989 0
M  V30 44 H -2.5104 -3.0945 2.789 0
M  V30 45 H 2.2047 -1.8984 2.7885 0
M  V30 46 H -1.5016 -1.0674 1.336 0
M  V30 47 H -0.072 -2.9148 6.9103 0
M  V30 48 H -0.0961 -3.7573 1.0593 0
M  V30 49 H -1.76 -3.4477 0.6093 0
M  V30 50 H 2.3029 1.3574 2.7923 0
M  V30 51 H 0.8555 -1.8299 -0.4438 0
M  V30 52 H -3.4915 -5.2519 2.7346 0
M  V30 53 H -0.2443 -5.8339 1.4702 0
M  V30 54 H -0.3956 -6.8707 2.8558 0
M  V30 55 H 0.5966 -5.4117 2.9862 0
M  V30 56 H -1.1684 -4.428 8.7078 0
M  V30 57 H -2.1857 -6.3256 8.2576 0
M  V30 58 H -2.8007 -7.2218 4.1278 0
M  V30 59 H 0.8396 2.4439 -1.2036 0
M  V30 60 H -2.312 -0.119 -1.6828 0
M  V30 61 H -3.0022 -1.6928 -2.0843 0
M  V30 62 H -2.8561 -1.2265 -0.4085 0
M  V30 63 H 0.523 -2.3662 -2.6562 0
M  V30 64 H -0.239 -0.8148 -3.0625 0
M  V30 65 H -1.0726 -2.3428 -3.3805 0
M  V30 66 H -3.0747 -7.8054 6.5016 0
M  V30 67 H 1.9094 4.7437 0.1819 0
M  V30 68 H 3.0748 3.9297 -0.9058 0
M  V30 69 H 0.3274 4.7325 -1.5843 0
M  V30 70 H 1.7857 6.6226 -1.4548 0
M  V30 71 H 2.9148 5.7856 -2.5333 0
M  V30 72 H 1.4848 7.4464 -3.7087 0
M  V30 73 H 0.0344 6.5735 -3.2271 0
M  V30 74 H 0.8066 4.5686 -4.5291 0
M  V30 75 H 2.287 5.4284 -4.9615 0
M  V30 76 H 0.9374 7.1657 -6.1443 0
M  V30 77 H -0.5494 6.3586 -5.645 0
M  V30 78 H 0.1785 4.2867 -6.9482 0
M  V30 79 H 0.1087 6.727 -8.5678 0
M  V30 80 H -1.2205 6.1103 -7.8435 0
M  V30 81 H 3.4662 4.1051 -7.8158 0
M  V30 END ATOM
M  V30 BEGIN BOND
M  V30 1 2 1 2
M  V30 2 1 2 3
M  V30 3 1 2 4
M  V30 4 2 3 5
M  V30 5 1 3 6
M  V30 6 1 4 7
M  V30 7 1 4 8
M  V30 8 1 4 9
M  V30 9 1 5 10
M  V30 10 1 5 11
M  V30 11 1 6 12
M  V30 12 1 6 13
M  V30 13 1 8 14
M  V30 14 2 8 15
M  V30 15 1 9 16
M  V30 16 2 11 17
M  V30 17 1 11 18
M  V30 18 1 12 19
M  V30 19 1 12 20
M  V30 20 1 15 21
M  V30 21 1 15 22
M  V30 22 1 16 23
M  V30 23 1 17 24
M  V30 24 1 17 25
M  V30 25 2 18 26
M  V30 26 2 21 27
M  V30 27 2 22 28
M  V30 28 1 22 29
M  V30 29 1 23 30
M  V30 30 1 23 31
M  V30 31 2 25 32
M  V30 32 1 29 33
M  V30 33 1 33 34
M  V30 34 1 34 35
M  V30 35 1 35 36
M  V30 36 1 36 37
M  V30 37 1 37 38
M  V30 38 1 38 39
M  V30 39 1 39 40
M  V30 40 1 39 41
M  V30 41 2 41 42
M  V30 42 1 41 43
M  V30 43 1 9 13
M  V30 44 1 12 18
M  V30 45 1 16 21
M  V30 46 1 26 32
M  V30 47 1 6 44
M  V30 48 1 7 45
M  V30 49 1 9 46
M  V30 50 1 10 47
M  V30 51 1 13 48
M  V30 52 1 13 49
M  V30 53 1 14 50
M  V30 54 1 16 51
M  V30 55 1 19 52
M  V30 56 1 20 53
M  V30 57 1 20 54
M  V30 58 1 20 55
M  V30 59 1 24 56
M  V30 60 1 25 57
M  V30 61 1 26 58
M  V30 62 1 29 59
M  V30 63 1 30 60
M  V30 64 1 30 61
M  V30 65 1 30 62
M  V30 66 1 31 63
M  V30 67 1 31 64
M  V30 68 1 31 65
M  V30 69 1 32 66
M  V30 70 1 33 67
M  V30 71 1 33 68
M  V30 72 1 34 69
M  V30 73 1 35 70
M  V30 74 1 35 71
M  V30 75 1 36 72
M  V30 76 1 36 73
M  V30 77 1 37 74
M  V30 78 1 37 75
M  V30 79 1 38 76
M  V30 80 1 38 77
M  V30 81 1 39 78
M  V30 82 1 40 79
M  V30 83 1 40 80
M  V30 84 1 43 81
M  V30 END BOND
M  V30 END CTAB
M  END
>  <level_0>
4440

>  <index>
4440

>  <NO.>
4441

>  <Name>
lymecycline, antibiotic for culture media use only

>  <SMILES>
CN(C)C1C(=O)C(C(=O)NCNCCCCC(N)C(=O)O)=C(O)C2(O)C(=O)C3=C(O)c4c(O)cccc4C(C)(O)C3CC12

>  <logBB>


>  <Class>
-1

>  <MW>
602.26

>  <nHBAcc>
12

>  <nHBDon>
9

>  <SLogP>
-0.61

>  <TopoPSA>
242.98

>  <MMFF94 Energy>
85.94

$$$$
COC(=O)C1NC(=O)C2NC(=O)C(NC(=O)C3NC(=O)C4NC(=O)C(NC(=O)C(N)c5ccc(O)c(c5)Oc5cc4cc(O)c5C)C(O)c4ccc(c(Cl)c4)Oc4cc3cc(c4O)Oc3ccc(cc3Cl)C2OC2OC(CO)C(O)C(O)C2NC(C)=O)c2ccc(O)c(c2)-c2c(O)cc(O)cc21
Actelion Java MolfileCreator 2.0

  0  0  0  0  0  0              0 V3000
M  V30 BEGIN CTAB
M  V30 COUNTS 164 175 0 0 0
M  V30 BEGIN ATOM
M  V30 1 Cl 6.7452 4.7912 -2.5152 0
M  V30 2 C 6.4853 4.1676 -0.9307 0
M  V30 3 C 5.4461 4.6277 -0.1202 0
M  V30 4 C 7.2334 3.0707 -0.5084 0
M  V30 5 O 4.4308 5.3982 -0.6608 0
M  V30 6 C 5.3088 4.1631 1.1929 0
M  V30 7 C 6.9597 2.4561 0.7278 0
M  V30 8 C 3.2565 4.6755 -0.8367 0
M  V30 9 C 6.0717 3.0793 1.6194 0
M  V30 10 C 7.4815 1.0617 1.029 0
M  V30 11 C 2.0743 5.1484 -0.2733 0
M  V30 12 C 3.2612 3.444 -1.5146 0
M  V30 13 O 8.8902 1.0914 0.7849 0
M  V30 14 C 6.7943 -0.0281 0.1453 0
M  V30 15 O 2.07 6.355 0.3723 0
M  V30 16 C 0.9121 4.3724 -0.3332 0
M  V30 17 C 2.1342 2.6095 -1.5148 0
M  V30 18 N 7.5708 -1.2882 0.0178 0
M  V30 19 C 5.3 -0.345 0.4668 0
M  V30 20 O -0.2156 4.9243 0.263 0
M  V30 21 C 0.9558 3.0981 -0.934 0
M  V30 22 C 2.234 1.2131 -2.119 0
M  V30 23 C 7.9867 -2.2326 0.9113 0
M  V30 24 O 4.9297 -1.4904 0.7097 0
M  V30 25 N 4.4032 0.6982 0.4107 0
M  V30 26 C -1.3925 4.2375 0.0815 0
M  V30 27 N 1.7455 0.1473 -1.2531 0
M  V30 28 C 1.6015 1.2131 -3.5387 0
M  V30 29 O 8.553 -3.2279 0.4411 0
M  V30 30 C 7.8339 -2.0521 2.4419 0
M  V30 31 C 3.0161 0.6334 0.9003 0
M  V30 32 C -2.1388 4.3688 -1.0918 0
M  V30 33 C -1.7725 3.3287 1.0709 0
M  V30 34 C 2.04 -0.2073 0.0322 0
M  V30 35 O 2.2334 1.7076 -4.4806 0
M  V30 36 N 0.326 0.8269 -3.7989 0
M  V30 37 N 9.1382 -2.3171 3.0802 0
M  V30 38 C 6.7349 -2.8972 3.0514 0
M  V30 39 C 2.9465 0.3874 2.4042 0
M  V30 40 Cl -1.7405 5.5419 -2.2892 0
M  V30 41 C -3.1761 3.4742 -1.3404 0
M  V30 42 C -2.8153 2.4399 0.8193 0
M  V30 43 O 1.3844 -1.1564 0.4716 0
M  V30 44 C -0.7742 0.2217 -3.0304 0
M  V30 45 C 5.7244 -2.2539 3.785 0
M  V30 46 C 6.6659 -4.2894 2.8968 0
M  V30 47 C 3.0642 -0.8935 2.9512 0
M  V30 48 C 2.8523 1.4665 3.2938 0
M  V30 49 C -3.4843 2.4584 -0.4145 0
M  V30 50 C -2.1081 0.7834 -3.6216 0
M  V30 51 C -0.7788 -1.2913 -3.2172 0
M  V30 52 C 4.607 -2.9599 4.2442 0
M  V30 53 C 5.5932 -5.0116 3.4322 0
M  V30 54 C 3.1959 -1.0832 4.3367 0
M  V30 55 C 2.8922 1.2643 4.6774 0
M  V30 56 C -4.4197 1.3112 -0.7935 0
M  V30 57 O -2.1237 1.2657 -4.7601 0
M  V30 58 N -3.2819 0.6989 -2.9358 0
M  V30 59 C -0.8626 -2.1613 -2.114 0
M  V30 60 C -0.852 -1.8319 -4.5117 0
M  V30 61 O 3.5172 -2.3372 4.8306 0
M  V30 62 C 4.5661 -4.3432 4.0904 0
M  V30 63 C 3.0584 -0.0117 5.2304 0
M  V30 64 O 2.7968 2.3987 5.4346 0
M  V30 65 O -5.4345 1.8356 -1.6511 0
M  V30 66 C -3.5913 0.2319 -1.5636 0
M  V30 67 C -1.1743 -3.526 -2.2731 0
M  V30 68 C -1.0727 -3.1892 -4.7027 0
M  V30 69 O 3.5108 -5.0774 4.5521 0
M  V30 70 C 3.1613 -0.2265 6.713 0
M  V30 71 C -6.7685 1.6289 -1.1983 0
M  V30 72 C -4.3807 -1.1003 -1.6684 0
M  V30 73 C -1.4837 -4.394 -1.0985 0
M  V30 74 C -1.2593 -4.0115 -3.5955 0
M  V30 75 O -7.0039 2.5133 -0.1021 0
M  V30 76 C -7.7166 1.8797 -2.406 0
M  V30 77 O -5.5146 -1.183 -2.1423 0
M  V30 78 N -3.6975 -2.2689 -1.4275 0
M  V30 79 C -0.7595 -5.5967 -0.8871 0
M  V30 80 C -2.5204 -4.0956 -0.1603 0
M  V30 81 O -1.5161 -5.3425 -3.8048 0
M  V30 82 C -8.3544 2.5742 0.3575 0
M  V30 83 N -7.6279 0.8112 -3.4243 0
M  V30 84 C -9.1803 2.0119 -1.9529 0
M  V30 85 C -3.3299 -2.7857 -0.0981 0
M  V30 86 O 0.2515 -6.0063 -1.7207 0
M  V30 87 C -1.0201 -6.4642 0.1719 0
M  V30 88 C -2.7917 -5.0148 0.8919 0
M  V30 89 C -9.3005 2.9926 -0.7805 0
M  V30 90 C -8.7512 1.278 1.0934 0
M  V30 91 C -6.6111 0.7559 -4.3499 0
M  V30 92 O -9.993 2.4527 -3.0515 0
M  V30 93 C -2.7359 -1.7789 0.9173 0
M  V30 94 C -2.0457 -6.1752 1.047 0
M  V30 95 O -10.6479 3.1112 -0.3169 0
M  V30 96 O -10.1061 1.2834 1.5227 0
M  V30 97 O -5.7385 1.6094 -4.4611 0
M  V30 98 C -6.6658 -0.4481 -5.2511 0
M  V30 99 O -3.2813 -0.7094 1.1753 0
M  V30 100 O -1.5936 -2.2047 1.5079 0
M  V30 101 O -2.2899 -7.0529 2.0595 0
M  V30 102 C -1.0237 -1.3089 2.4648 0
M  V30 103 H 7.9801 2.6396 -1.174 0
M  V30 104 H 4.5384 4.5778 1.8399 0
M  V30 105 H 5.8873 2.6619 2.6085 0
M  V30 106 H 7.3356 0.8662 2.0936 0
M  V30 107 H 4.1646 3.1119 -2.0205 0
M  V30 108 H 9.2269 0.1815 0.8822 0
M  V30 109 H 6.7795 0.3411 -0.8898 0
M  V30 110 H 1.1391 6.5695 0.5674 0
M  V30 111 H 7.7444 -1.6029 -0.9303 0
M  V30 112 H 0.0767 2.4628 -0.9486 0
M  V30 113 H 3.2941 0.969 -2.2683 0
M  V30 114 H 4.7071 1.5985 0.0704 0
M  V30 115 H 1.2532 -0.603 -1.7173 0
M  V30 116 H 7.6184 -1.0089 2.6502 0
M  V30 117 H 2.6523 1.6577 0.7871 0
M  V30 118 H -1.2131 3.2643 2.0004 0
M  V30 119 H 0.0644 1.0426 -4.7596 0
M  V30 120 H 8.9886 -2.4708 4.0766 0
M  V30 121 H 9.4748 -3.2113 2.7119 0
M  V30 122 H -3.71 3.5256 -2.2897 0
M  V30 123 H -3.0644 1.6971 1.5739 0
M  V30 124 H -0.6881 0.514 -1.9832 0
M  V30 125 H 5.7818 -1.1797 3.9406 0
M  V30 126 H 7.4336 -4.8229 2.339 0
M  V30 127 H 3.1276 -1.7602 2.2927 0
M  V30 128 H 2.7592 2.4853 2.9218 0
M  V30 129 H 5.5419 -6.0889 3.3012 0
M  V30 130 H -4.8646 0.8907 0.116 0
M  V30 131 H -4.0797 1.085 -3.4523 0
M  V30 132 H -0.7595 -1.7611 -1.1075 0
M  V30 133 H -0.7817 -1.1868 -5.3876 0
M  V30 134 H 2.8934 2.1784 6.3745 0
M  V30 135 H -2.6423 0.0431 -1.0601 0
M  V30 136 H -1.1293 -3.5767 -5.7156 0
M  V30 137 H 2.8571 -4.4375 4.8867 0
M  V30 138 H 3.0907 -1.2832 6.9883 0
M  V30 139 H 2.3415 0.2822 7.2311 0
M  V30 140 H 4.1173 0.1581 7.0813 0
M  V30 141 H -6.8781 0.5927 -0.86 0
M  V30 142 H -7.4136 2.81 -2.9057 0
M  V30 143 H -4.0768 -3.0129 -2.0023 0
M  V30 144 H -1.691 -5.4894 -4.7512 0
M  V30 145 H -8.3973 3.3737 1.1085 0
M  V30 146 H -8.2163 -0.0073 -3.3237 0
M  V30 147 H -9.5849 1.0347 -1.6634 0
M  V30 148 H -4.3051 -3.0453 0.3409 0
M  V30 149 H -0.0236 -5.7643 -2.6237 0
M  V30 150 H -0.43 -7.3675 0.2946 0
M  V30 151 H -3.5758 -4.7949 1.6132 0
M  V30 152 H -9.0128 3.9889 -1.1386 0
M  V30 153 H -8.1033 1.1252 1.9638 0
M  V30 154 H -8.6193 0.3983 0.4578 0
M  V30 155 H -9.5791 2.1359 -3.8749 0
M  V30 156 H -10.9412 2.2286 -0.0153 0
M  V30 157 H -10.2086 2.0149 2.1619 0
M  V30 158 H -7.2018 -1.2768 -4.7807 0
M  V30 159 H -5.6468 -0.7783 -5.4715 0
M  V30 160 H -7.1711 -0.1754 -6.1811 0
M  V30 161 H -3.0069 -6.7148 2.6183 0
M  V30 162 H -0.7867 -0.3475 1.9989 0
M  V30 163 H -1.7092 -1.169 3.3063 0
M  V30 164 H -0.1003 -1.7561 2.8415 0
M  V30 END ATOM
M  V30 BEGIN BOND
M  V30 1 1 1 2
M  V30 2 2 2 3
M  V30 3 1 2 4
M  V30 4 1 3 5
M  V30 5 1 3 6
M  V30 6 2 4 7
M  V30 7 1 5 8
M  V30 8 2 6 9
M  V30 9 1 7 10
M  V30 10 2 8 11
M  V30 11 1 8 12
M  V30 12 1 10 13
M  V30 13 1 10 14
M  V30 14 1 11 15
M  V30 15 1 11 16
M  V30 16 2 12 17
M  V30 17 1 14 18
M  V30 18 1 14 19
M  V30 19 1 16 20
M  V30 20 2 16 21
M  V30 21 1 17 22
M  V30 22 1 18 23
M  V30 23 2 19 24
M  V30 24 1 19 25
M  V30 25 1 20 26
M  V30 26 1 22 27
M  V30 27 1 22 28
M  V30 28 2 23 29
M  V30 29 1 23 30
M  V30 30 1 25 31
M  V30 31 2 26 32
M  V30 32 1 26 33
M  V30 33 1 27 34
M  V30 34 2 28 35
M  V30 35 1 28 36
M  V30 36 1 30 37
M  V30 37 1 30 38
M  V30 38 1 31 39
M  V30 39 1 32 40
M  V30 40 1 32 41
M  V30 41 2 33 42
M  V30 42 2 34 43
M  V30 43 1 36 44
M  V30 44 2 38 45
M  V30 45 1 38 46
M  V30 46 2 39 47
M  V30 47 1 39 48
M  V30 48 2 41 49
M  V30 49 1 44 50
M  V30 50 1 44 51
M  V30 51 1 45 52
M  V30 52 2 46 53
M  V30 53 1 47 54
M  V30 54 2 48 55
M  V30 55 1 49 56
M  V30 56 2 50 57
M  V30 57 1 50 58
M  V30 58 2 51 59
M  V30 59 1 51 60
M  V30 60 1 52 61
M  V30 61 2 52 62
M  V30 62 2 54 63
M  V30 63 1 55 64
M  V30 64 1 56 65
M  V30 65 1 56 66
M  V30 66 1 59 67
M  V30 67 2 60 68
M  V30 68 1 62 69
M  V30 69 1 63 70
M  V30 70 1 65 71
M  V30 71 1 66 72
M  V30 72 1 67 73
M  V30 73 2 67 74
M  V30 74 1 71 75
M  V30 75 1 71 76
M  V30 76 2 72 77
M  V30 77 1 72 78
M  V30 78 2 73 79
M  V30 79 1 73 80
M  V30 80 1 74 81
M  V30 81 1 75 82
M  V30 82 1 76 83
M  V30 83 1 76 84
M  V30 84 1 78 85
M  V30 85 1 79 86
M  V30 86 1 79 87
M  V30 87 2 80 88
M  V30 88 1 82 89
M  V30 89 1 82 90
M  V30 90 1 83 91
M  V30 91 1 84 92
M  V30 92 1 85 93
M  V30 93 2 87 94
M  V30 94 1 89 95
M  V30 95 1 90 96
M  V30 96 2 91 97
M  V30 97 1 91 98
M  V30 98 2 93 99
M  V30 99 1 93 100
M  V30 100 1 94 101
M  V30 101 1 100 102
M  V30 102 1 7 9
M  V30 103 1 17 21
M  V30 104 1 31 34
M  V30 105 1 42 49
M  V30 106 1 53 62
M  V30 107 1 54 61
M  V30 108 1 55 63
M  V30 109 1 58 66
M  V30 110 1 68 74
M  V30 111 1 80 85
M  V30 112 1 84 89
M  V30 113 1 88 94
M  V30 114 1 4 103
M  V30 115 1 6 104
M  V30 116 1 9 105
M  V30 117 1 10 106
M  V30 118 1 12 107
M  V30 119 1 13 108
M  V30 120 1 14 109
M  V30 121 1 15 110
M  V30 122 1 18 111
M  V30 123 1 21 112
M  V30 124 1 22 113
M  V30 125 1 25 114
M  V30 126 1 27 115
M  V30 127 1 30 116
M  V30 128 1 31 117
M  V30 129 1 33 118
M  V30 130 1 36 119
M  V30 131 1 37 120
M  V30 132 1 37 121
M  V30 133 1 41 122
M  V30 134 1 42 123
M  V30 135 1 44 124
M  V30 136 1 45 125
M  V30 137 1 46 126
M  V30 138 1 47 127
M  V30 139 1 48 128
M  V30 140 1 53 129
M  V30 141 1 56 130
M  V30 142 1 58 131
M  V30 143 1 59 132
M  V30 144 1 60 133
M  V30 145 1 64 134
M  V30 146 1 66 135
M  V30 147 1 68 136
M  V30 148 1 69 137
M  V30 149 1 70 138
M  V30 150 1 70 139
M  V30 151 1 70 140
M  V30 152 1 71 141
M  V30 153 1 76 142
M  V30 154 1 78 143
M  V30 155 1 81 144
M  V30 156 1 82 145
M  V30 157 1 83 146
M  V30 158 1 84 147
M  V30 159 1 85 148
M  V30 160 1 86 149
M  V30 161 1 87 150
M  V30 162 1 88 151
M  V30 163 1 89 152
M  V30 164 1 90 153
M  V30 165 1 90 154
M  V30 166 1 92 155
M  V30 167 1 95 156
M  V30 168 1 96 157
M  V30 169 1 98 158
M  V30 170 1 98 159
M  V30 171 1 98 160
M  V30 172 1 101 161
M  V30 173 1 102 162
M  V30 174 1 102 163
M  V30 175 1 102 164
M  V30 END BOND
M  V30 END CTAB
M  END
>  <level_0>
4497

>  <index>
4497

>  <NO.>
4498

>  <Name>
teicoplanin

>  <SMILES>
COC(=O)C1NC(=O)C2NC(=O)C(NC(=O)C3NC(=O)C4NC(=O)C(NC(=O)C(N)c5ccc(O)c(c5)Oc5cc4cc(O)c5C)C(O)c4ccc(c(Cl)c4)Oc4cc3cc(c4O)Oc3ccc(cc3Cl)C2OC2OC(CO)C(O)C(O)C2NC(C)=O)c2ccc(O)c(c2)-c2c(O)cc(O)cc21

>  <logBB>


>  <Class>
-1

>  <MW>
1444.33

>  <nHBAcc>
25

>  <nHBDon>
18

>  <SLogP>
2.84

>  <TopoPSA>
504.47

>  <MMFF94 Energy>
528.93

$$$$
COC(C(=O)C(O)C(C)O)C1Cc2cc3cc(OC4CC(OC5CC(O)C(O)C(C)O5)C(O)C(C)O4)c(C)c(O)c3c(O)c2C(=O)C1OC1CC(OC2CC(O)C(OC3CC(C)(O)C(O)C(C)O3)C(C)O2)C(O)C(C)O1
Actelion Java MolfileCreator 2.0

  0  0  0  0  0  0              0 V3000
M  V30 BEGIN CTAB
M  V30 COUNTS 152 159 0 0 0
M  V30 BEGIN ATOM
M  V30 1 O 1.6018 -2.0827 5.1328 0
M  V30 2 C 0.9342 -1.6563 4.1891 0
M  V30 3 C 1.1816 -2.2117 2.8353 0
M  V30 4 C -0.0822 -0.5257 4.3487 0
M  V30 5 C 2.1826 -3.1809 2.6288 0
M  V30 6 C 0.4212 -1.7587 1.7563 0
M  V30 7 O 0.4735 0.7664 4.1512 0
M  V30 8 C -1.2389 -0.6731 3.3302 0
M  V30 9 O 2.9438 -3.6571 3.6811 0
M  V30 10 C 2.4617 -3.7095 1.3384 0
M  V30 11 C 0.6976 -2.2627 0.4764 0
M  V30 12 C -0.6552 -0.7168 1.9118 0
M  V30 13 C 1.4932 1.178 5.0595 0
M  V30 14 C -2.2661 0.4778 3.5079 0
M  V30 15 C 3.451 -4.6893 1.05 0
M  V30 16 C 1.6973 -3.2263 0.2563 0
M  V30 17 O 1.1517 1.0503 6.4358 0
M  V30 18 C 1.79 2.638 4.7186 0
M  V30 19 O -2.7899 0.3538 4.8406 0
M  V30 20 C -3.4066 0.4236 2.4689 0
M  V30 21 O 4.2193 -5.2245 2.059 0
M  V30 22 C 3.6942 -5.1631 -0.2505 0
M  V30 23 C 1.9265 -3.7134 -1.0424 0
M  V30 24 C 0.0554 1.8581 6.8783 0
M  V30 25 C 0.5436 3.4591 5.0367 0
M  V30 26 C -3.5281 1.4947 5.2661 0
M  V30 27 O -4.4286 -0.2466 2.6599 0
M  V30 28 C -3.2425 1.2279 1.1614 0
M  V30 29 C 2.9096 -4.672 -1.3038 0
M  V30 30 C 4.7352 -6.2247 -0.4917 0
M  V30 31 C 0.245 3.3441 6.5349 0
M  V30 32 C -0.089 1.6494 8.3822 0
M  V30 33 O 0.7338 4.8314 4.6655 0
M  V30 34 O -2.1649 2.1524 1.2067 0
M  V30 35 C -4.5804 1.9224 0.8133 0
M  V30 36 O 3.1594 -5.2112 -2.5379 0
M  V30 37 O -0.9313 4.0944 6.8515 0
M  V30 38 C -0.3801 5.3326 3.9169 0
M  V30 39 O -5.6069 0.9672 0.5341 0
M  V30 40 C -4.4656 2.8159 -0.418 0
M  V30 41 C 2.5851 -4.5914 -3.6949 0
M  V30 42 O -0.4195 6.7549 4.0279 0
M  V30 43 C -0.2335 4.9442 2.4461 0
M  V30 44 O 1.1797 -4.8335 -3.8104 0
M  V30 45 C 3.3377 -5.1011 -4.9234 0
M  V30 46 C -1.5935 7.2961 3.4065 0
M  V30 47 C -1.4105 5.4803 1.6498 0
M  V30 48 C 0.8501 -6.2186 -3.9951 0
M  V30 49 C 3.0409 -6.5835 -5.1421 0
M  V30 50 C -1.6158 6.9867 1.8962 0
M  V30 51 C -1.5973 8.8006 3.6596 0
M  V30 52 O -2.6001 4.7451 2.013 0
M  V30 53 C 1.5184 -6.7851 -5.2625 0
M  V30 54 C -0.6705 -6.3097 -4.0547 0
M  V30 55 O 3.7208 -7.0099 -6.3296 0
M  V30 56 O -2.8947 7.3604 1.3583 0
M  V30 57 O 1.0335 -6.0988 -6.4284 0
M  V30 58 C 4.2537 -8.3291 -6.2371 0
M  V30 59 C -2.8138 7.8018 -2.0E-4 0
M  V30 60 O 3.24 -9.2819 -5.9157 0
M  V30 61 C 4.8955 -8.6585 -7.5799 0
M  V30 62 O -2.1359 9.0538 -0.053 0
M  V30 63 C -4.2441 7.9684 -0.5047 0
M  V30 64 C 3.7497 -10.6166 -5.8062 0
M  V30 65 C 5.4486 -10.0773 -7.5649 0
M  V30 66 C -1.9932 9.5274 -1.3965 0
M  V30 67 C -4.2543 8.5194 -1.9292 0
M  V30 68 C 4.3697 -11.0819 -7.1376 0
M  V30 69 C 2.5961 -11.5019 -5.3511 0
M  V30 70 O 5.9301 -10.416 -8.8664 0
M  V30 71 C -3.3748 9.7865 -2.0279 0
M  V30 72 C -1.1577 10.8027 -1.3456 0
M  V30 73 O -3.7158 7.512 -2.8006 0
M  V30 74 C -5.6877 8.7872 -2.3935 0
M  V30 75 O 3.4086 -11.1514 -8.2048 0
M  V30 76 O -3.218 10.1441 -3.4066 0
M  V30 77 H -0.4977 -0.6101 5.3596 0
M  V30 78 H -1.7419 -1.6305 3.5311 0
M  V30 79 H 2.6428 -3.2062 4.5063 0
M  V30 80 H 0.116 -1.8976 -0.3711 0
M  V30 81 H -1.457 -0.9572 1.2058 0
M  V30 82 H -0.2355 0.2559 1.6293 0
M  V30 83 H 2.3926 0.581 4.8768 0
M  V30 84 H -1.7717 1.4507 3.4362 0
M  V30 85 H 2.0422 2.7508 3.6578 0
M  V30 86 H 2.6417 3.0111 5.2997 0
M  V30 87 H 3.9386 -4.7874 2.8904 0
M  V30 88 H 1.2997 -3.3399 -1.8481 0
M  V30 89 H -0.8634 1.4878 6.4137 0
M  V30 90 H -0.3104 3.052 4.4815 0
M  V30 91 H -3.8161 1.3439 6.3099 0
M  V30 92 H -2.9143 2.3981 5.2019 0
M  V30 93 H -4.4375 1.6174 4.6717 0
M  V30 94 H -3.0059 0.4927 0.3843 0
M  V30 95 H 5.1779 -6.1355 -1.4891 0
M  V30 96 H 4.2837 -7.2166 -0.3927 0
M  V30 97 H 5.5676 -6.1416 0.2145 0
M  V30 98 H 1.074 3.7717 7.1127 0
M  V30 99 H 0.8147 1.9736 8.9097 0
M  V30 100 H -0.2193 0.5853 8.6076 0
M  V30 101 H -0.9464 2.1963 8.7856 0
M  V30 102 H -2.4771 2.9985 1.5987 0
M  V30 103 H -4.9154 2.5358 1.6584 0
M  V30 104 H -0.6906 5.0292 6.6975 0
M  V30 105 H -1.3121 4.9416 4.3458 0
M  V30 106 H -5.6562 0.3539 1.2992 0
M  V30 107 H -5.4407 3.25 -0.6654 0
M  V30 108 H -3.756 3.6341 -0.27 0
M  V30 109 H -4.151 2.2341 -1.2914 0
M  V30 110 H 2.7414 -3.5065 -3.6445 0
M  V30 111 H -0.1625 3.8565 2.3418 0
M  V30 112 H 0.6991 5.3655 2.0509 0
M  V30 113 H 3.0445 -4.5292 -5.8124 0
M  V30 114 H 4.4187 -4.9627 -4.8009 0
M  V30 115 H -2.4839 6.8792 3.8958 0
M  V30 116 H -1.2582 5.2904 0.5823 0
M  V30 117 H 1.1886 -6.7813 -3.116 0
M  V30 118 H 3.4198 -7.1463 -4.278 0
M  V30 119 H -0.7943 7.5356 1.4163 0
M  V30 120 H -2.4895 9.2775 3.2431 0
M  V30 121 H -1.5644 9.0051 4.7354 0
M  V30 122 H -0.7102 9.273 3.2235 0
M  V30 123 H -3.3398 5.3535 1.7913 0
M  V30 124 H 1.2764 -7.8447 -5.3883 0
M  V30 125 H -1.1061 -5.9525 -3.1149 0
M  V30 126 H -1.001 -7.3393 -4.2206 0
M  V30 127 H -1.0804 -5.6724 -4.8454 0
M  V30 128 H 0.1884 -6.5073 -6.6769 0
M  V30 129 H 5.0177 -8.334 -5.4483 0
M  V30 130 H -2.2755 7.0534 -0.5948 0
M  V30 131 H 4.1579 -8.5501 -8.3864 0
M  V30 132 H 5.6868 -7.9382 -7.8209 0
M  V30 133 H -4.786 8.6515 0.1627 0
M  V30 134 H -4.756 6.9991 -0.4522 0
M  V30 135 H 4.5182 -10.6293 -5.0223 0
M  V30 136 H 6.2985 -10.1308 -6.8748 0
M  V30 137 H -1.4314 8.7892 -1.9835 0
M  V30 138 H 4.8055 -12.0825 -7.0418 0
M  V30 139 H 1.7305 -11.4108 -6.0155 0
M  V30 140 H 2.897 -12.5521 -5.296 0
M  V30 141 H 2.252 -11.1879 -4.3592 0
M  V30 142 H 5.124 -10.5989 -9.3923 0
M  V30 143 H -3.8632 10.616 -1.4999 0
M  V30 144 H -0.1915 10.6045 -0.8689 0
M  V30 145 H -0.9744 11.2056 -2.346 0
M  V30 146 H -1.6527 11.5712 -0.7417 0
M  V30 147 H -3.4815 7.9736 -3.6323 0
M  V30 148 H -6.2932 7.8761 -2.3254 0
M  V30 149 H -5.7153 9.0938 -3.4449 0
M  V30 150 H -6.1668 9.5658 -1.7913 0
M  V30 151 H 2.692 -11.7479 -7.9303 0
M  V30 152 H -3.9814 10.697 -3.6535 0
M  V30 END ATOM
M  V30 BEGIN BOND
M  V30 1 2 1 2
M  V30 2 1 2 3
M  V30 3 1 2 4
M  V30 4 2 3 5
M  V30 5 1 3 6
M  V30 6 1 4 7
M  V30 7 1 4 8
M  V30 8 1 5 9
M  V30 9 1 5 10
M  V30 10 2 6 11
M  V30 11 1 6 12
M  V30 12 1 7 13
M  V30 13 1 8 14
M  V30 14 2 10 15
M  V30 15 1 10 16
M  V30 16 1 13 17
M  V30 17 1 13 18
M  V30 18 1 14 19
M  V30 19 1 14 20
M  V30 20 1 15 21
M  V30 21 1 15 22
M  V30 22 2 16 23
M  V30 23 1 17 24
M  V30 24 1 18 25
M  V30 25 1 19 26
M  V30 26 2 20 27
M  V30 27 1 20 28
M  V30 28 2 22 29
M  V30 29 1 22 30
M  V30 30 1 24 31
M  V30 31 1 24 32
M  V30 32 1 25 33
M  V30 33 1 28 34
M  V30 34 1 28 35
M  V30 35 1 29 36
M  V30 36 1 31 37
M  V30 37 1 33 38
M  V30 38 1 35 39
M  V30 39 1 35 40
M  V30 40 1 36 41
M  V30 41 1 38 42
M  V30 42 1 38 43
M  V30 43 1 41 44
M  V30 44 1 41 45
M  V30 45 1 42 46
M  V30 46 1 43 47
M  V30 47 1 44 48
M  V30 48 1 45 49
M  V30 49 1 46 50
M  V30 50 1 46 51
M  V30 51 1 47 52
M  V30 52 1 48 53
M  V30 53 1 48 54
M  V30 54 1 49 55
M  V30 55 1 50 56
M  V30 56 1 53 57
M  V30 57 1 55 58
M  V30 58 1 56 59
M  V30 59 1 58 60
M  V30 60 1 58 61
M  V30 61 1 59 62
M  V30 62 1 59 63
M  V30 63 1 60 64
M  V30 64 1 61 65
M  V30 65 1 62 66
M  V30 66 1 63 67
M  V30 67 1 64 68
M  V30 68 1 64 69
M  V30 69 1 65 70
M  V30 70 1 66 71
M  V30 71 1 66 72
M  V30 72 1 67 73
M  V30 73 1 67 74
M  V30 74 1 68 75
M  V30 75 1 71 76
M  V30 76 1 8 12
M  V30 77 1 11 16
M  V30 78 1 23 29
M  V30 79 1 25 31
M  V30 80 1 47 50
M  V30 81 1 49 53
M  V30 82 1 65 68
M  V30 83 1 67 71
M  V30 84 1 4 77
M  V30 85 1 8 78
M  V30 86 1 9 79
M  V30 87 1 11 80
M  V30 88 1 12 81
M  V30 89 1 12 82
M  V30 90 1 13 83
M  V30 91 1 14 84
M  V30 92 1 18 85
M  V30 93 1 18 86
M  V30 94 1 21 87
M  V30 95 1 23 88
M  V30 96 1 24 89
M  V30 97 1 25 90
M  V30 98 1 26 91
M  V30 99 1 26 92
M  V30 100 1 26 93
M  V30 101 1 28 94
M  V30 102 1 30 95
M  V30 103 1 30 96
M  V30 104 1 30 97
M  V30 105 1 31 98
M  V30 106 1 32 99
M  V30 107 1 32 100
M  V30 108 1 32 101
M  V30 109 1 34 102
M  V30 110 1 35 103
M  V30 111 1 37 104
M  V30 112 1 38 105
M  V30 113 1 39 106
M  V30 114 1 40 107
M  V30 115 1 40 108
M  V30 116 1 40 109
M  V30 117 1 41 110
M  V30 118 1 43 111
M  V30 119 1 43 112
M  V30 120 1 45 113
M  V30 121 1 45 114
M  V30 122 1 46 115
M  V30 123 1 47 116
M  V30 124 1 48 117
M  V30 125 1 49 118
M  V30 126 1 50 119
M  V30 127 1 51 120
M  V30 128 1 51 121
M  V30 129 1 51 122
M  V30 130 1 52 123
M  V30 131 1 53 124
M  V30 132 1 54 125
M  V30 133 1 54 126
M  V30 134 1 54 127
M  V30 135 1 57 128
M  V30 136 1 58 129
M  V30 137 1 59 130
M  V30 138 1 61 131
M  V30 139 1 61 132
M  V30 140 1 63 133
M  V30 141 1 63 134
M  V30 142 1 64 135
M  V30 143 1 65 136
M  V30 144 1 66 137
M  V30 145 1 68 138
M  V30 146 1 69 139
M  V30 147 1 69 140
M  V30 148 1 69 141
M  V30 149 1 70 142
M  V30 150 1 71 143
M  V30 151 1 72 144
M  V30 152 1 72 145
M  V30 153 1 72 146
M  V30 154 1 73 147
M  V30 155 1 74 148
M  V30 156 1 74 149
M  V30 157 1 74 150
M  V30 158 1 75 151
M  V30 159 1 76 152
M  V30 END BOND
M  V30 END CTAB
M  END
>  <level_0>
4499

>  <index>
4499

>  <NO.>
4500

>  <Name>
plicamycin

>  <SMILES>
COC(C(=O)C(O)C(C)O)C1Cc2cc3cc(OC4CC(OC5CC(O)C(O)C(C)O5)C(O)C(C)O4)c(C)c(O)c3c(O)c2C(=O)C1OC1CC(OC2CC(O)C(OC3CC(C)(O)C(O)C(C)O3)C(C)O2)C(O)C(C)O1

>  <logBB>


>  <Class>
1

>  <MW>
1084.47

>  <nHBAcc>
24

>  <nHBDon>
11

>  <SLogP>
-0.25

>  <TopoPSA>
358.2

>  <MMFF94 Energy>
278.79

$$$$
CC(C)(ON=C(C(=O)NC1C(=O)N2C(C(=O)O)=C(C[n+]3ccccc3)CSC12)c1csc(N)n1)C(=O)O
Actelion Java MolfileCreator 2.0

  0  0  0  0  0  0              0 V3000
M  V30 BEGIN CTAB
M  V30 COUNTS 60 63 0 0 0
M  V30 BEGIN ATOM
M  V30 1 S -1.469 1.0608 -0.4079 0
M  V30 2 C 0.025 1.6881 0.4027 0
M  V30 3 C -1.2921 2.1718 -1.8323 0
M  V30 4 N 1.1376 1.4114 -0.4814 0
M  V30 5 C 0.7596 0.8158 1.4643 0
M  V30 6 C 0.0784 2.1046 -2.4825 0
M  V30 7 C 1.1823 1.7035 -1.8056 0
M  V30 8 C 1.9556 0.8705 0.4464 0
M  V30 9 N 0.2173 -0.5298 1.7522 0
M  V30 10 C 0.0717 2.4161 -3.9666 0
M  V30 11 C 2.4716 1.5192 -2.5204 0
M  V30 12 O 3.1193 0.5538 0.414 0
M  V30 13 C -0.8407 -0.7053 2.6208 0
M  V30 14 N -0.1884 3.8598 -4.2077 0 CHG=1
M  V30 15 O 3.0152 2.3867 -3.1817 0
M  V30 16 O 2.8924 0.2521 -2.4616 0
M  V30 17 O -1.4236 0.2091 3.1857 0
M  V30 18 C -1.2937 -2.1543 2.7871 0
M  V30 19 C -1.4175 4.269 -4.6054 0
M  V30 20 C 0.8207 4.7549 -4.0701 0
M  V30 21 N -0.4947 -3.0798 3.2418 0
M  V30 22 C -2.6381 -2.5538 2.3694 0
M  V30 23 C -1.6748 5.6132 -4.8481 0
M  V30 24 C 0.6048 6.1082 -4.3031 0
M  V30 25 O 0.746 -2.5604 3.652 0
M  V30 26 N -3.0114 -3.8982 2.3147 0
M  V30 27 C -3.6438 -1.6844 1.9835 0
M  V30 28 C -0.6549 6.5415 -4.6921 0
M  V30 29 C 1.7978 -3.5212 3.4423 0
M  V30 30 C -4.253 -4.0237 1.9232 0
M  V30 31 S -5.059 -2.5543 1.5644 0
M  V30 32 C 2.0753 -3.6145 1.9374 0
M  V30 33 C 3.0388 -2.9318 4.117 0
M  V30 34 C 1.4584 -4.8799 4.0602 0
M  V30 35 N -4.8648 -5.2043 1.802 0
M  V30 36 O 1.6482 -2.8544 1.0739 0
M  V30 37 O 2.9167 -4.6134 1.5981 0
M  V30 38 H -0.034 2.7463 0.6871 0
M  V30 39 H -2.064 1.8693 -2.5472 0
M  V30 40 H -1.5081 3.2012 -1.5266 0
M  V30 41 H 0.9871 1.3552 2.3921 0
M  V30 42 H 0.6627 -1.3722 1.3736 0
M  V30 43 H 0.9967 2.1729 -4.4958 0
M  V30 44 H -0.7122 1.8381 -4.4706 0
M  V30 45 H 3.7987 0.2234 -2.8339 0
M  V30 46 H -2.1913 3.516 -4.726 0
M  V30 47 H 1.7979 4.3842 -3.7763 0
M  V30 48 H -2.6651 5.9368 -5.1627 0
M  V30 49 H 1.4192 6.8209 -4.187 0
M  V30 50 H -3.6312 -0.6046 1.9378 0
M  V30 51 H -0.8384 7.5987 -4.8811 0
M  V30 52 H 2.8608 -2.7674 5.1858 0
M  V30 53 H 3.2893 -1.9545 3.6869 0
M  V30 54 H 3.9129 -3.5819 4.005 0
M  V30 55 H 0.6586 -5.3829 3.5049 0
M  V30 56 H 2.323 -5.5523 4.0584 0
M  V30 57 H 1.1105 -4.7638 5.0926 0
M  V30 58 H -5.8333 -5.2907 1.5278 0
M  V30 59 H -4.3673 -6.0509 2.0476 0
M  V30 60 H 3.007 -4.5522 0.6246 0
M  V30 END ATOM
M  V30 BEGIN BOND
M  V30 1 1 1 2
M  V30 2 1 1 3
M  V30 3 1 2 4
M  V30 4 1 2 5
M  V30 5 1 3 6
M  V30 6 1 4 7
M  V30 7 1 4 8
M  V30 8 1 5 9
M  V30 9 1 6 10
M  V30 10 1 7 11
M  V30 11 2 8 12
M  V30 12 1 9 13
M  V30 13 1 10 14
M  V30 14 2 11 15
M  V30 15 1 11 16
M  V30 16 2 13 17
M  V30 17 1 13 18
M  V30 18 2 14 19
M  V30 19 1 14 20
M  V30 20 2 18 21
M  V30 21 1 18 22
M  V30 22 1 19 23
M  V30 23 2 20 24
M  V30 24 1 21 25
M  V30 25 1 22 26
M  V30 26 2 22 27
M  V30 27 2 23 28
M  V30 28 1 25 29
M  V30 29 2 26 30
M  V30 30 1 27 31
M  V30 31 1 29 32
M  V30 32 1 29 33
M  V30 33 1 29 34
M  V30 34 1 30 35
M  V30 35 2 32 36
M  V30 36 1 32 37
M  V30 37 1 5 8
M  V30 38 2 6 7
M  V30 39 1 24 28
M  V30 40 1 30 31
M  V30 41 1 2 38
M  V30 42 1 3 39
M  V30 43 1 3 40
M  V30 44 1 5 41
M  V30 45 1 9 42
M  V30 46 1 10 43
M  V30 47 1 10 44
M  V30 48 1 16 45
M  V30 49 1 19 46
M  V30 50 1 20 47
M  V30 51 1 23 48
M  V30 52 1 24 49
M  V30 53 1 27 50
M  V30 54 1 28 51
M  V30 55 1 33 52
M  V30 56 1 33 53
M  V30 57 1 33 54
M  V30 58 1 34 55
M  V30 59 1 34 56
M  V30 60 1 34 57
M  V30 61 1 35 58
M  V30 62 1 35 59
M  V30 63 1 37 60
M  V30 END BOND
M  V30 END CTAB
M  END
>  <level_0>
4665

>  <index>
4665

>  <NO.>
4666

>  <Name>
ceftazidime

>  <SMILES>
CC(C)(ON=C(C(=O)NC1C(=O)N2C(C(=O)O)=C(C[n+]3ccccc3)CSC12)c1csc(N)n1)C(=O)O

>  <logBB>


>  <Class>
1

>  <MW>
547.11

>  <nHBAcc>
10

>  <nHBDon>
4

>  <SLogP>
0.04

>  <TopoPSA>
188.39

>  <MMFF94 Energy>
83.521

$$$$
CCOc1cccc(F)c1B(O)O
Actelion Java MolfileCreator 2.0

  0  0  0  0  0  0              0 V3000
M  V30 BEGIN CTAB
M  V30 COUNTS 23 23 0 0 0
M  V30 BEGIN ATOM
M  V30 1 F -3.4768 -2.234 -0.3307 0
M  V30 2 C -2.0448 -2.0067 -0.0393 0
M  V30 3 C -1.4166 -0.5372 -0.2128 0
M  V30 4 C -1.1536 -3.2331 0.4453 0
M  V30 5 C 0.1476 -0.3327 0.1159 0
M  V30 6 B -2.4557 0.8272 -0.771 0
M  V30 7 C 0.3859 -3.0219 0.7644 0
M  V30 8 O 0.7341 1.0949 -0.0733 0
M  V30 9 C 1.0309 -1.5627 0.5946 0
M  V30 10 O -3.098 1.5596 0.1431 0
M  V30 11 O -2.5695 1.084 -2.0771 0
M  V30 12 C 2.113 1.1407 0.2295 0
M  V30 13 C 2.6505 2.5487 0.0335 0
M  V30 14 H -1.6028 -4.2114 0.557 0
M  V30 15 H 0.997 -3.8509 1.0951 0
M  V30 16 H 2.0906 -1.4827 0.8222 0
M  V30 17 H -3.5321 2.1897 -0.1741 0
M  V30 18 H -2.902 1.8334 -2.2424 0
M  V30 19 H 2.6961 0.4117 -0.3491 0
M  V30 20 H 2.2187 0.8646 1.2849 0
M  V30 21 H 3.7006 2.6074 0.3333 0
M  V30 22 H 2.5685 2.8576 -1.0134 0
M  V30 23 H 2.0736 3.2672 0.6252 0
M  V30 END ATOM
M  V30 BEGIN BOND
M  V30 1 1 1 2
M  V30 2 2 2 3
M  V30 3 1 2 4
M  V30 4 1 3 5
M  V30 5 1 3 6
M  V30 6 2 4 7
M  V30 7 1 5 8
M  V30 8 2 5 9
M  V30 9 1 6 10
M  V30 10 1 6 11
M  V30 11 1 8 12
M  V30 12 1 12 13
M  V30 13 1 7 9
M  V30 14 1 4 14
M  V30 15 1 7 15
M  V30 16 1 9 16
M  V30 17 1 10 17
M  V30 18 1 11 18
M  V30 19 1 12 19
M  V30 20 1 12 20
M  V30 21 1 13 21
M  V30 22 1 13 22
M  V30 23 1 13 23
M  V30 END BOND
M  V30 END CTAB
M  END
>  <level_0>
4669

>  <index>
4669

>  <NO.>
4670

>  <Name>
2-ethoxy-6-fluorophenylboronic acid

>  <SMILES>
CCOc1cccc(F)c1B(O)O

>  <logBB>


>  <Class>
1

>  <MW>
184.07

>  <nHBAcc>
3

>  <nHBDon>
2

>  <SLogP>
-0.1

>  <TopoPSA>
49.69

>  <MMFF94 Energy>
Couldn't assign an atom type to atom 5 (B)

$$$$
CC(C)CC(NC(=O)C(C)NC(=O)CNC(=O)C(NC=O)C(C)C)C(=O)NC(C)C(=O)NC(C(=O)NC(C(=O)NC(C(=O)NC(Cc1c[nH]c2ccccc12)C(=O)NC(CC(C)C)C(=O)NC(Cc1ccccc1)C(=O)NC(CC(C)C)C(=O)NC(Cc1c[nH]c2ccccc12)C(=O)NC(CC(C)C)C(=O)NC(Cc1c[nH]c2ccccc12)C(=O)NCCO)C(C)C)C(C)C)C(C)C
Actelion Java MolfileCreator 2.0

  0  0  0  0  0  0              0 V3000
M  V30 BEGIN CTAB
M  V30 COUNTS 272 278 0 0 0
M  V30 BEGIN ATOM
M  V30 1 O 1.2602 5.0483 -3.074 0
M  V30 2 C 0.8257 5.2455 -1.9425 0
M  V30 3 N 0.3437 4.2213 -1.15 0
M  V30 4 C 0.7549 6.6453 -1.2871 0
M  V30 5 C 0.5359 2.8163 -1.5283 0
M  V30 6 N -0.6074 7.1592 -1.3631 0
M  V30 7 C 1.7942 7.6148 -1.9109 0
M  V30 8 C 0.5606 1.9341 -0.2615 0
M  V30 9 C -0.4474 2.3404 -2.6192 0
M  V30 10 C -1.1673 7.9755 -0.4049 0
M  V30 11 C 1.3537 8.2094 -3.2539 0
M  V30 12 C 2.1559 8.7504 -0.9472 0
M  V30 13 O 1.2242 0.8991 -0.1878 0
M  V30 14 N -0.2744 2.3133 0.7608 0
M  V30 15 C -0.0284 0.9836 -3.1921 0
M  V30 16 C -1.9015 2.2833 -2.1599 0
M  V30 17 O -0.6397 8.1732 0.6885 0
M  V30 18 C -2.531 8.5821 -0.8161 0
M  V30 19 C -0.088 1.8221 2.1276 0
M  V30 20 N -3.5385 7.5389 -0.6624 0
M  V30 21 C -2.8887 9.8417 0.0061 0
M  V30 22 C -0.7945 0.4638 2.2762 0
M  V30 23 C -0.622 2.8175 3.167 0
M  V30 24 C -3.7673 6.5834 -1.6269 0
M  V30 25 C -1.8857 10.9741 -0.2503 0
M  V30 26 C -4.2974 10.352 -0.3263 0
M  V30 27 O -1.9581 0.3503 2.6524 0
M  V30 28 N -0.0242 -0.6022 1.8675 0
M  V30 29 C -0.0173 4.1824 3.0281 0
M  V30 30 O -3.0791 6.5062 -2.6426 0
M  V30 31 C -4.9775 5.6732 -1.3329 0
M  V30 32 C -0.5222 -1.9726 1.756 0
M  V30 33 C 1.3147 4.5789 3.3735 0
M  V30 34 C -0.6414 5.2961 2.503 0
M  V30 35 N -4.7456 4.8958 -0.1203 0
M  V30 36 C -5.2784 4.7456 -2.502 0
M  V30 37 C 0.071 -2.683 0.5096 0
M  V30 38 C -0.1365 -2.7973 2.9992 0
M  V30 39 C 1.4518 5.9245 3.0302 0
M  V30 40 C 2.4258 3.913 3.9307 0
M  V30 41 N 0.2455 6.3395 2.52 0
M  V30 42 C -5.0244 5.3552 1.1453 0
M  V30 43 O -0.1246 -3.8743 0.2648 0
M  V30 44 N 0.8328 -1.9057 -0.3282 0
M  V30 45 C -0.8144 -2.379 4.3177 0
M  V30 46 C 2.6436 6.6361 3.2075 0
M  V30 47 C 3.6252 4.6106 4.1174 0
M  V30 48 O -5.2846 6.5429 1.3389 0
M  V30 49 C -4.7799 4.3374 2.2937 0
M  V30 50 C 1.7526 -2.4687 -1.3249 0
M  V30 51 C -2.3198 -2.6437 4.2963 0
M  V30 52 C -0.1806 -3.1394 5.4868 0
M  V30 53 C 3.7301 5.9521 3.7588 0
M  V30 54 N -5.012 2.9391 1.9225 0
M  V30 55 C -5.5209 4.7119 3.5909 0
M  V30 56 C 1.0296 -2.7168 -2.6697 0
M  V30 57 C 2.9835 -1.5603 -1.5111 0
M  V30 58 C -4.1041 2.1805 1.2122 0
M  V30 59 C -7.031 5.034 3.5029 0
M  V30 60 O 1.4708 -2.361 -3.761 0
M  V30 61 N -0.1051 -3.496 -2.5656 0
M  V30 62 C 3.8007 -1.2486 -0.2671 0
M  V30 63 O -3.1133 2.7042 0.6983 0
M  V30 64 C -4.5628 0.742 0.8939 0
M  V30 65 C -7.8778 3.931 2.8734 0
M  V30 66 C -7.562 5.3451 4.9074 0
M  V30 67 C -1.0187 -3.7216 -3.6846 0
M  V30 68 C 4.5824 -0.0832 -0.2492 0
M  V30 69 C 3.8407 -2.0887 0.8539 0
M  V30 70 N -5.258 0.178 2.0438 0
M  V30 71 C -5.465 0.796 -0.3369 0
M  V30 72 C -0.6005 -4.8782 -4.6274 0
M  V30 73 C -2.4492 -3.9822 -3.1834 0
M  V30 74 C 5.3603 0.2417 0.8644 0
M  V30 75 C 4.6199 -1.7662 1.9674 0
M  V30 76 C -5.5736 -1.1546 2.1623 0
M  V30 77 O -1.2988 -5.2309 -5.5766 0
M  V30 78 N 0.6178 -5.4526 -4.3647 0
M  V30 79 C -3.0765 -2.8411 -2.357 0
M  V30 80 C 5.3797 -0.6005 1.9731 0
M  V30 81 O -5.4216 -1.9636 1.2519 0
M  V30 82 C -6.2768 -1.5238 3.4767 0
M  V30 83 C 1.2063 -6.4846 -5.2344 0
M  V30 84 C -3.1838 -1.5366 -3.1461 0
M  V30 85 C -4.4668 -3.2671 -1.879 0
M  V30 86 N -5.5447 -1.139 4.673 0
M  V30 87 C 2.7371 -6.317 -5.1627 0
M  V30 88 C 0.7472 -7.8915 -4.8257 0
M  V30 89 C -5.47 0.1488 5.1498 0
M  V30 90 O 3.5475 -7.2375 -5.1816 0
M  V30 91 N 3.1329 -4.991 -5.1614 0
M  V30 92 C 0.5195 -8.7974 -6.0005 0
M  V30 93 O -5.9749 1.0969 4.5481 0
M  V30 94 C -4.7276 0.2813 6.5006 0
M  V30 95 C 4.5003 -4.6049 -4.8379 0
M  V30 96 C 1.3844 -9.8259 -6.4942 0
M  V30 97 C -0.5975 -8.7908 -6.8146 0
M  V30 98 N -5.6732 -0.1504 7.5298 0
M  V30 99 C -4.2171 1.7169 6.7517 0
M  V30 100 C 4.5806 -4.6525 -3.2948 0
M  V30 101 C 4.774 -3.1967 -5.3863 0
M  V30 102 C 0.754 -10.4105 -7.594 0
M  V30 103 C 2.6487 -10.3176 -6.1102 0
M  V30 104 N -0.4444 -9.7596 -7.7664 0
M  V30 105 C -5.8476 -1.4747 7.8307 0
M  V30 106 C -3.6201 1.867 8.1564 0
M  V30 107 C -3.1499 2.1048 5.7211 0
M  V30 108 O 3.582 -4.6039 -2.5723 0
M  V30 109 N 5.8467 -4.7096 -2.7675 0
M  V30 110 C 6.2315 -2.7014 -5.3149 0
M  V30 111 C 1.3215 -11.4617 -8.3247 0
M  V30 112 C 3.2316 -11.3669 -6.83 0
M  V30 113 O -5.274 -2.3949 7.2638 0
M  V30 114 C 6.0696 -4.6247 -1.3281 0
M  V30 115 C 7.1928 -3.5933 -6.1005 0
M  V30 116 C 6.3118 -1.2665 -5.8465 0
M  V30 117 C 2.5747 -11.9301 -7.9206 0
M  V30 118 C 7.4206 -3.9262 -1.1242 0
M  V30 119 C 6.0906 -6.0094 -0.6685 0
M  V30 120 O 8.4549 -4.327 -1.6561 0
M  V30 121 N 7.3735 -2.7972 -0.3375 0
M  V30 122 C 5.9376 -5.9225 0.8206 0
M  V30 123 C 8.5668 -2.0438 0.0056 0
M  V30 124 C 4.7048 -5.8481 1.5436 0
M  V30 125 C 6.9535 -5.8887 1.7549 0
M  V30 126 C 9.2966 -2.675 1.1913 0
M  V30 127 C 5.02 -5.7425 2.8983 0
M  V30 128 C 3.3466 -5.8531 1.1653 0
M  V30 129 N 6.3912 -5.783 2.9991 0
M  V30 130 O 8.4342 -2.7251 2.3302 0
M  V30 131 C 4.0429 -5.6317 3.8952 0
M  V30 132 C 2.3576 -5.7449 2.149 0
M  V30 133 C 2.7034 -5.6334 3.4933 0
M  V30 134 H 0.0387 4.4394 -0.2067 0
M  V30 135 H 1.0118 6.5037 -0.2308 0
M  V30 136 H 1.5546 2.7591 -1.937 0
M  V30 137 H -1.1756 6.9171 -2.1786 0
M  V30 138 H 2.7196 7.0498 -2.0869 0
M  V30 139 H -0.406 3.0584 -3.4484 0
M  V30 140 H 1.086 7.431 -3.9736 0
M  V30 141 H 2.1661 8.7982 -3.694 0
M  V30 142 H 0.4918 8.8753 -3.1385 0
M  V30 143 H 1.3119 9.4268 -0.7819 0
M  V30 144 H 2.4763 8.3556 0.0223 0
M  V30 145 H 2.9818 9.3465 -1.3505 0
M  V30 146 H -1.1267 2.8348 0.5575 0
M  V30 147 H -0.1391 0.1832 -2.4545 0
M  V30 148 H 1.0145 1.0025 -3.5245 0
M  V30 149 H -0.6464 0.7256 -4.0586 0
M  V30 150 H -2.5612 2.0502 -3.0029 0
M  V30 151 H -2.0536 1.5067 -1.4043 0
M  V30 152 H -2.2209 3.2458 -1.7501 0
M  V30 153 H -2.4737 8.8497 -1.8795 0
M  V30 154 H 0.9876 1.6733 2.2869 0
M  V30 155 H -4.0891 7.4938 0.197 0
M  V30 156 H -2.8649 9.5986 1.0765 0
M  V30 157 H -1.712 2.9062 3.0843 0
M  V30 158 H -0.4246 2.4358 4.1766 0
M  V30 159 H -2.1567 11.8683 0.3215 0
M  V30 160 H -0.872 10.694 0.0494 0
M  V30 161 H -1.8609 11.2475 -1.3107 0
M  V30 162 H -5.0643 9.6196 -0.0553 0
M  V30 163 H -4.3972 10.5705 -1.3949 0
M  V30 164 H -4.5186 11.2706 0.2283 0
M  V30 165 H 0.9343 -0.4161 1.5789 0
M  V30 166 H -5.8434 6.3257 -1.1641 0
M  V30 167 H -1.6076 -1.9489 1.613 0
M  V30 168 H -1.6352 5.4458 2.1057 0
M  V30 169 H -4.2026 4.0403 -0.1978 0
M  V30 170 H -5.4808 5.3177 -3.4135 0
M  V30 171 H -4.4366 4.0763 -2.7086 0
M  V30 172 H -6.1526 4.1213 -2.2881 0
M  V30 173 H 0.9534 -2.7371 3.1267 0
M  V30 174 H -0.3585 -3.8575 2.8197 0
M  V30 175 H 2.3615 2.8672 4.2142 0
M  V30 176 H 0.0547 7.2659 2.1444 0
M  V30 177 H 0.7973 -0.8889 -0.2551 0
M  V30 178 H -0.6479 -1.3108 4.4955 0
M  V30 179 H 2.7242 7.6827 2.9309 0
M  V30 180 H 4.4827 4.0986 4.5467 0
M  V30 181 H -3.7068 4.4087 2.5091 0
M  V30 182 H 2.0666 -3.4535 -0.9609 0
M  V30 183 H -2.8224 -2.0483 3.5302 0
M  V30 184 H -2.5353 -3.6992 4.0987 0
M  V30 185 H -2.7693 -2.385 5.2606 0
M  V30 186 H 0.8935 -2.9351 5.5472 0
M  V30 187 H -0.3148 -4.221 5.3781 0
M  V30 188 H -0.6306 -2.8357 6.438 0
M  V30 189 H 4.6699 6.4779 3.9116 0
M  V30 190 H -5.8702 2.4939 2.2249 0
M  V30 191 H -5.0246 5.5996 4.0076 0
M  V30 192 H -5.3687 3.911 4.3261 0
M  V30 193 H 3.6651 -2.0032 -2.2462 0
M  V30 194 H 2.6446 -0.6097 -1.9453 0
M  V30 195 H -7.1682 5.9407 2.9029 0
M  V30 196 H -0.3336 -3.8815 -1.6474 0
M  V30 197 H -3.6815 0.1259 0.6882 0
M  V30 198 H -7.626 3.7893 1.8184 0
M  V30 199 H -7.7496 2.9794 3.3984 0
M  V30 200 H -8.9417 4.1905 2.9124 0
M  V30 201 H -7.0033 6.1704 5.3615 0
M  V30 202 H -7.4771 4.4739 5.566 0
M  V30 203 H -8.6163 5.6396 4.8696 0
M  V30 204 H -0.9978 -2.8242 -4.3143 0
M  V30 205 H 4.5782 0.5904 -1.1045 0
M  V30 206 H 3.267 -3.0104 0.886 0
M  V30 207 H -5.3459 0.7358 2.89 0
M  V30 208 H -5.7726 -0.204 -0.6547 0
M  V30 209 H -4.9484 1.2724 -1.1772 0
M  V30 210 H -6.3758 1.3729 -0.1391 0
M  V30 211 H -2.446 -4.8973 -2.5749 0
M  V30 212 H -3.1019 -4.1945 -4.0408 0
M  V30 213 H 5.9502 1.155 0.8646 0
M  V30 214 H 4.6322 -2.4321 2.8276 0
M  V30 215 H 1.1306 -5.1503 -3.5407 0
M  V30 216 H -2.4619 -2.6544 -1.4684 0
M  V30 217 H 5.9899 -0.3513 2.8378 0
M  V30 218 H -7.2599 -1.0414 3.4925 0
M  V30 219 H -6.409 -2.6094 3.5113 0
M  V30 220 H 0.9101 -6.2538 -6.2656 0
M  V30 221 H -2.1965 -1.1483 -3.4073 0
M  V30 222 H -3.7518 -1.6772 -4.0718 0
M  V30 223 H -3.6874 -0.7647 -2.5544 0
M  V30 224 H -4.4045 -4.1576 -1.2449 0
M  V30 225 H -5.1258 -3.4962 -2.7234 0
M  V30 226 H -4.937 -2.4719 -1.2942 0
M  V30 227 H -5.2074 -1.8858 5.2825 0
M  V30 228 H -0.203 -7.8297 -4.2773 0
M  V30 229 H 1.4563 -8.3517 -4.1271 0
M  V30 230 H 2.4048 -4.283 -5.0874 0
M  V30 231 H -3.8779 -0.4132 6.4957 0
M  V30 232 H 5.1829 -5.3497 -5.2568 0
M  V30 233 H -1.4844 -8.1693 -6.7935 0
M  V30 234 H -6.2753 0.5368 7.9665 0
M  V30 235 H -5.052 2.4245 6.6643 0
M  V30 236 H 4.1379 -2.4789 -4.8502 0
M  V30 237 H 4.4459 -3.1611 -6.4346 0
M  V30 238 H 3.1761 -9.8798 -5.2673 0
M  V30 239 H -1.1118 -9.9705 -8.4945 0
M  V30 240 H -6.5916 -1.6299 8.6295 0
M  V30 241 H -3.2205 2.8765 8.3025 0
M  V30 242 H -4.375 1.7027 8.9318 0
M  V30 243 H -2.8045 1.154 8.3184 0
M  V30 244 H -3.5418 2.0717 4.7007 0
M  V30 245 H -2.7912 3.1245 5.8986 0
M  V30 246 H -2.2884 1.4302 5.7721 0
M  V30 247 H 6.6587 -4.8321 -3.3641 0
M  V30 248 H 6.5575 -2.6725 -4.2698 0
M  V30 249 H 0.8126 -11.8998 -9.1765 0
M  V30 250 H 4.2087 -11.7388 -6.5332 0
M  V30 251 H 5.2712 -4.0115 -0.8979 0
M  V30 252 H 7.2569 -4.5951 -5.667 0
M  V30 253 H 6.8775 -3.6929 -7.1446 0
M  V30 254 H 8.2046 -3.1737 -6.0927 0
M  V30 255 H 5.6589 -0.6015 -5.2711 0
M  V30 256 H 6.0093 -1.2136 -6.8979 0
M  V30 257 H 7.3331 -0.879 -5.7677 0
M  V30 258 H 3.0441 -12.7434 -8.4681 0
M  V30 259 H 7.0191 -6.5418 -0.9123 0
M  V30 260 H 5.277 -6.6274 -1.0696 0
M  V30 261 H 6.4784 -2.4506 -0.005 0
M  V30 262 H 8.2349 -1.0329 0.2612 0
M  V30 263 H 9.2275 -1.991 -0.8652 0
M  V30 264 H 8.0294 -5.9337 1.6408 0
M  V30 265 H 9.6209 -3.6958 0.9662 0
M  V30 266 H 10.1764 -2.0824 1.4579 0
M  V30 267 H 3.0624 -5.9373 0.1192 0
M  V30 268 H 6.9051 -5.7439 3.8691 0
M  V30 269 H 7.6204 -3.166 2.0213 0
M  V30 270 H 4.3077 -5.557 4.9449 0
M  V30 271 H 1.31 -5.751 1.8545 0
M  V30 272 H 1.919 -5.5569 4.243 0
M  V30 END ATOM
M  V30 BEGIN BOND
M  V30 1 2 1 2
M  V30 2 1 2 3
M  V30 3 1 2 4
M  V30 4 1 3 5
M  V30 5 1 4 6
M  V30 6 1 4 7
M  V30 7 1 5 8
M  V30 8 1 5 9
M  V30 9 1 6 10
M  V30 10 1 7 11
M  V30 11 1 7 12
M  V30 12 2 8 13
M  V30 13 1 8 14
M  V30 14 1 9 15
M  V30 15 1 9 16
M  V30 16 2 10 17
M  V30 17 1 10 18
M  V30 18 1 14 19
M  V30 19 1 18 20
M  V30 20 1 18 21
M  V30 21 1 19 22
M  V30 22 1 19 23
M  V30 23 1 20 24
M  V30 24 1 21 25
M  V30 25 1 21 26
M  V30 26 2 22 27
M  V30 27 1 22 28
M  V30 28 1 23 29
M  V30 29 2 24 30
M  V30 30 1 24 31
M  V30 31 1 28 32
M  V30 32 1 29 33
M  V30 33 2 29 34
M  V30 34 1 31 35
M  V30 35 1 31 36
M  V30 36 1 32 37
M  V30 37 1 32 38
M  V30 38 2 33 39
M  V30 39 1 33 40
M  V30 40 1 34 41
M  V30 41 1 35 42
M  V30 42 2 37 43
M  V30 43 1 37 44
M  V30 44 1 38 45
M  V30 45 1 39 46
M  V30 46 2 40 47
M  V30 47 2 42 48
M  V30 48 1 42 49
M  V30 49 1 44 50
M  V30 50 1 45 51
M  V30 51 1 45 52
M  V30 52 2 46 53
M  V30 53 1 49 54
M  V30 54 1 49 55
M  V30 55 1 50 56
M  V30 56 1 50 57
M  V30 57 1 54 58
M  V30 58 1 55 59
M  V30 59 2 56 60
M  V30 60 1 56 61
M  V30 61 1 57 62
M  V30 62 2 58 63
M  V30 63 1 58 64
M  V30 64 1 59 65
M  V30 65 1 59 66
M  V30 66 1 61 67
M  V30 67 2 62 68
M  V30 68 1 62 69
M  V30 69 1 64 70
M  V30 70 1 64 71
M  V30 71 1 67 72
M  V30 72 1 67 73
M  V30 73 1 68 74
M  V30 74 2 69 75
M  V30 75 1 70 76
M  V30 76 2 72 77
M  V30 77 1 72 78
M  V30 78 1 73 79
M  V30 79 2 74 80
M  V30 80 2 76 81
M  V30 81 1 76 82
M  V30 82 1 78 83
M  V30 83 1 79 84
M  V30 84 1 79 85
M  V30 85 1 82 86
M  V30 86 1 83 87
M  V30 87 1 83 88
M  V30 88 1 86 89
M  V30 89 2 87 90
M  V30 90 1 87 91
M  V30 91 1 88 92
M  V30 92 2 89 93
M  V30 93 1 89 94
M  V30 94 1 91 95
M  V30 95 1 92 96
M  V30 96 2 92 97
M  V30 97 1 94 98
M  V30 98 1 94 99
M  V30 99 1 95 100
M  V30 100 1 95 101
M  V30 101 2 96 102
M  V30 102 1 96 103
M  V30 103 1 97 104
M  V30 104 1 98 105
M  V30 105 1 99 106
M  V30 106 1 99 107
M  V30 107 2 100 108
M  V30 108 1 100 109
M  V30 109 1 101 110
M  V30 110 1 102 111
M  V30 111 2 103 112
M  V30 112 2 105 113
M  V30 113 1 109 114
M  V30 114 1 110 115
M  V30 115 1 110 116
M  V30 116 2 111 117
M  V30 117 1 114 118
M  V30 118 1 114 119
M  V30 119 2 118 120
M  V30 120 1 118 121
M  V30 121 1 119 122
M  V30 122 1 121 123
M  V30 123 1 122 124
M  V30 124 2 122 125
M  V30 125 1 123 126
M  V30 126 2 124 127
M  V30 127 1 124 128
M  V30 128 1 125 129
M  V30 129 1 126 130
M  V30 130 1 127 131
M  V30 131 2 128 132
M  V30 132 2 131 133
M  V30 133 1 39 41
M  V30 134 1 47 53
M  V30 135 1 75 80
M  V30 136 1 102 104
M  V30 137 1 112 117
M  V30 138 1 127 129
M  V30 139 1 132 133
M  V30 140 1 3 134
M  V30 141 1 4 135
M  V30 142 1 5 136
M  V30 143 1 6 137
M  V30 144 1 7 138
M  V30 145 1 9 139
M  V30 146 1 11 140
M  V30 147 1 11 141
M  V30 148 1 11 142
M  V30 149 1 12 143
M  V30 150 1 12 144
M  V30 151 1 12 145
M  V30 152 1 14 146
M  V30 153 1 15 147
M  V30 154 1 15 148
M  V30 155 1 15 149
M  V30 156 1 16 150
M  V30 157 1 16 151
M  V30 158 1 16 152
M  V30 159 1 18 153
M  V30 160 1 19 154
M  V30 161 1 20 155
M  V30 162 1 21 156
M  V30 163 1 23 157
M  V30 164 1 23 158
M  V30 165 1 25 159
M  V30 166 1 25 160
M  V30 167 1 25 161
M  V30 168 1 26 162
M  V30 169 1 26 163
M  V30 170 1 26 164
M  V30 171 1 28 165
M  V30 172 1 31 166
M  V30 173 1 32 167
M  V30 174 1 34 168
M  V30 175 1 35 169
M  V30 176 1 36 170
M  V30 177 1 36 171
M  V30 178 1 36 172
M  V30 179 1 38 173
M  V30 180 1 38 174
M  V30 181 1 40 175
M  V30 182 1 41 176
M  V30 183 1 44 177
M  V30 184 1 45 178
M  V30 185 1 46 179
M  V30 186 1 47 180
M  V30 187 1 49 181
M  V30 188 1 50 182
M  V30 189 1 51 183
M  V30 190 1 51 184
M  V30 191 1 51 185
M  V30 192 1 52 186
M  V30 193 1 52 187
M  V30 194 1 52 188
M  V30 195 1 53 189
M  V30 196 1 54 190
M  V30 197 1 55 191
M  V30 198 1 55 192
M  V30 199 1 57 193
M  V30 200 1 57 194
M  V30 201 1 59 195
M  V30 202 1 61 196
M  V30 203 1 64 197
M  V30 204 1 65 198
M  V30 205 1 65 199
M  V30 206 1 65 200
M  V30 207 1 66 201
M  V30 208 1 66 202
M  V30 209 1 66 203
M  V30 210 1 67 204
M  V30 211 1 68 205
M  V30 212 1 69 206
M  V30 213 1 70 207
M  V30 214 1 71 208
M  V30 215 1 71 209
M  V30 216 1 71 210
M  V30 217 1 73 211
M  V30 218 1 73 212
M  V30 219 1 74 213
M  V30 220 1 75 214
M  V30 221 1 78 215
M  V30 222 1 79 216
M  V30 223 1 80 217
M  V30 224 1 82 218
M  V30 225 1 82 219
M  V30 226 1 83 220
M  V30 227 1 84 221
M  V30 228 1 84 222
M  V30 229 1 84 223
M  V30 230 1 85 224
M  V30 231 1 85 225
M  V30 232 1 85 226
M  V30 233 1 86 227
M  V30 234 1 88 228
M  V30 235 1 88 229
M  V30 236 1 91 230
M  V30 237 1 94 231
M  V30 238 1 95 232
M  V30 239 1 97 233
M  V30 240 1 98 234
M  V30 241 1 99 235
M  V30 242 1 101 236
M  V30 243 1 101 237
M  V30 244 1 103 238
M  V30 245 1 104 239
M  V30 246 1 105 240
M  V30 247 1 106 241
M  V30 248 1 106 242
M  V30 249 1 106 243
M  V30 250 1 107 244
M  V30 251 1 107 245
M  V30 252 1 107 246
M  V30 253 1 109 247
M  V30 254 1 110 248
M  V30 255 1 111 249
M  V30 256 1 112 250
M  V30 257 1 114 251
M  V30 258 1 115 252
M  V30 259 1 115 253
M  V30 260 1 115 254
M  V30 261 1 116 255
M  V30 262 1 116 256
M  V30 263 1 116 257
M  V30 264 1 117 258
M  V30 265 1 119 259
M  V30 266 1 119 260
M  V30 267 1 121 261
M  V30 268 1 123 262
M  V30 269 1 123 263
M  V30 270 1 125 264
M  V30 271 1 126 265
M  V30 272 1 126 266
M  V30 273 1 128 267
M  V30 274 1 129 268
M  V30 275 1 130 269
M  V30 276 1 131 270
M  V30 277 1 132 271
M  V30 278 1 133 272
M  V30 END BOND
M  V30 END CTAB
M  END
>  <level_0>
4740

>  <index>
4740

>  <NO.>
4741

>  <Name>
gramicidin-b

>  <SMILES>
CC(C)CC(NC(=O)C(C)NC(=O)CNC(=O)C(NC=O)C(C)C)C(=O)NC(C)C(=O)NC(C(=O)NC(C(=O)NC(C(=O)NC(Cc1c[nH]c2ccccc12)C(=O)NC(CC(C)C)C(=O)NC(Cc1ccccc1)C(=O)NC(CC(C)C)C(=O)NC(Cc1c[nH]c2ccccc12)C(=O)NC(CC(C)C)C(=O)NC(Cc1c[nH]c2ccccc12)C(=O)NCCO)C(C)C)C(C)C)C(C)C

>  <logBB>


>  <Class>
-1

>  <MW>
1842.06

>  <nHBAcc>
17

>  <nHBDon>
20

>  <SLogP>
3.89

>  <TopoPSA>
533.2

>  <MMFF94 Energy>
207.54

$$$$
CC(C)C[C@@H](NC(=O)[C@H](C)NC(=O)CNC(=O)[C@@H](NC=O)C(C)C)C(=O)N[C@@H](C)C(=O)N[C@@H](C(=O)N[C@H](C(=O)N[C@@H](C(=O)N[C@@H](Cc1c[nH]c2ccccc12)C(=O)N[C@H](CC(C)C)C(=O)N[C@@H](Cc1c[nH]c2ccccc12)C(=O)N[C@H](CC(C)C)C(=O)N[C@@H](Cc1c[nH]c2ccccc12)C(=O)N[C@H](CC(C)C)C(=O)N[C@@H](Cc1c[nH]c2ccccc12)C(=O)NCCO)C(C)C)C(C)C)C(C)C
Actelion Java MolfileCreator 2.0

  0  0  0  0  0  0              0 V3000
M  V30 BEGIN CTAB
M  V30 COUNTS 276 283 0 0 0
M  V30 BEGIN ATOM
M  V30 1 O 3.7857 -0.7089 3.3908 0
M  V30 2 C 4.7098 -0.2746 2.7057 0
M  V30 3 N 4.9409 -0.6947 1.4194 0
M  V30 4 C 5.6418 0.862 3.1796 0 CFG=1
M  V30 5 C 4.2067 -1.7776 0.7778 0 CFG=1
M  V30 6 N 4.8144 2.0491 3.3552 0
M  V30 7 C 6.4403 0.5263 4.4589 0
M  V30 8 C 4.0737 -1.4495 -0.7256 0
M  V30 9 C 4.8577 -3.1663 0.9719 0
M  V30 10 C 5.2806 3.316 3.0822 0
M  V30 11 C 5.5751 0.2631 5.6945 0
M  V30 12 C 7.3915 -0.6494 4.2229 0
M  V30 13 O 4.9247 -0.8179 -1.3508 0
M  V30 14 N 2.9284 -1.9298 -1.3045 0
M  V30 15 C 6.3744 -3.1524 0.7553 0
M  V30 16 C 4.5401 -3.7505 2.351 0
M  V30 17 O 6.4537 3.5453 2.7794 0
M  V30 18 C 4.2082 4.423 3.2472 0 CFG=2
M  V30 19 C 2.5274 -1.6156 -2.6729 0 CFG=2
M  V30 20 N 4.5705 5.5713 2.434 0
M  V30 21 C 3.9949 4.7714 4.7372 0
M  V30 22 C 1.0093 -1.8493 -2.7672 0
M  V30 23 C 3.2791 -2.4043 -3.7551 0
M  V30 24 C 4.2666 5.6631 1.0901 0
M  V30 25 C 5.2283 5.3865 5.4063 0
M  V30 26 C 2.7889 5.6986 4.9144 0
M  V30 27 O 0.4454 -2.6904 -2.0654 0
M  V30 28 N 0.3462 -1.0711 -3.6843 0
M  V30 29 C 3.3639 -3.8854 -3.5194 0
M  V30 30 O 3.527 4.8685 0.5106 0
M  V30 31 C 4.9983 6.8304 0.3801 0 CFG=1
M  V30 32 C -1.0923 -1.1838 -3.9343 0 CFG=1
M  V30 33 C 4.5146 -4.618 -3.0794 0
M  V30 34 C 2.3523 -4.8088 -3.6982 0
M  V30 35 N 6.4101 6.4719 0.2999 0
M  V30 36 C 4.4294 7.0827 -1.0075 0
M  V30 37 C -1.7317 0.1883 -3.6544 0
M  V30 38 C -1.3793 -1.5559 -5.3971 0
M  V30 39 C 4.1478 -5.9605 -2.9843 0
M  V30 40 C 5.8384 -4.2613 -2.7506 0
M  V30 41 N 2.8293 -6.0461 -3.3626 0
M  V30 42 C 7.2523 6.5604 1.39 0
M  V30 43 O -1.0976 1.2386 -3.7803 0
M  V30 44 N -3.0675 0.1696 -3.3272 0
M  V30 45 C -0.8432 -2.9294 -5.8427 0
M  V30 46 C 5.0341 -6.9626 -2.5715 0
M  V30 47 C 6.7395 -5.2506 -2.3402 0
M  V30 48 O 6.9129 7.1383 2.422 0
M  V30 49 C 8.6159 5.8552 1.2011 0 CFG=2
M  V30 50 C -3.8063 1.411 -3.1169 0 CFG=2
M  V30 51 C -1.5106 -4.0822 -5.0936 0
M  V30 52 C -1.0606 -3.1036 -7.3484 0
M  V30 53 C 6.3397 -6.5811 -2.2506 0
M  V30 54 N 8.3248 4.4572 0.8792 0
M  V30 55 C 9.4775 5.9809 2.4663 0
M  V30 56 C -4.5964 1.372 -1.7981 0
M  V30 57 C -4.6689 1.8371 -4.3102 0
M  V30 58 C 8.1952 4.0121 -0.4122 0
M  V30 59 C 10.9446 5.5119 2.3668 0
M  V30 60 O -5.2751 0.4136 -1.4332 0
M  V30 61 N -4.4509 2.5112 -1.0306 0
M  V30 62 C -5.796 0.9168 -4.6681 0
M  V30 63 O 8.2708 4.7759 -1.3767 0
M  V30 64 C 7.8904 2.516 -0.5761 0 CFG=1
M  V30 65 C 11.0899 3.9972 2.2282 0
M  V30 66 C 11.7164 6.2266 1.2581 0
M  V30 67 C -5.0886 2.6548 0.2662 0 CFG=1
M  V30 68 C -7.1642 1.0365 -4.2563 0
M  V30 69 C -5.723 -0.19 -5.4918 0
M  V30 70 N 6.7435 2.4329 -1.4718 0
M  V30 71 C 9.0955 1.8029 -1.1674 0
M  V30 72 C -4.3766 1.6824 1.2375 0
M  V30 73 C -4.9893 4.0845 0.8197 0
M  V30 74 C -7.8722 -0.0083 -4.8485 0
M  V30 75 C -7.8691 1.9384 -3.4319 0
M  V30 76 N -6.9729 -0.7381 -5.5877 0
M  V30 77 C 5.4722 2.2067 -0.9994 0
M  V30 78 O -3.2204 1.8326 1.627 0
M  V30 79 N -5.1398 0.5856 1.5528 0
M  V30 80 C -6.0379 5.0643 0.2532 0
M  V30 81 C -9.2444 -0.2019 -4.6533 0
M  V30 82 C -9.2412 1.7588 -3.2232 0
M  V30 83 O 5.2528 1.8916 0.1689 0
M  V30 84 C 4.3643 2.3686 -2.0427 0
M  V30 85 C -4.6493 -0.5774 2.2877 0 CFG=2
M  V30 86 C -5.9891 6.379 1.0382 0
M  V30 87 C -5.8489 5.3566 -1.2346 0
M  V30 88 C -9.9162 0.7013 -3.8255 0
M  V30 89 N 3.1509 2.8167 -1.3913 0
M  V30 90 C -5.7394 -1.6497 2.0909 0
M  V30 91 C -4.4335 -0.2886 3.7794 0
M  V30 92 C 1.8988 2.3963 -1.7717 0
M  V30 93 O -6.8999 -1.3496 1.7964 0
M  V30 94 N -5.3492 -2.9558 2.238 0
M  V30 95 C -3.6123 -1.3413 4.4643 0
M  V30 96 O 1.7097 1.6538 -2.7335 0
M  V30 97 C 0.7627 2.9141 -0.8604 0 CFG=1
M  V30 98 C -6.2796 -4.0731 2.0337 0 CFG=1
M  V30 99 C -2.1966 -1.526 4.3561 0
M  V30 100 C -4.0815 -2.3298 5.3071 0
M  V30 101 N -0.4235 3.2037 -1.6546 0
M  V30 102 C 0.431 1.9521 0.3077 0
M  V30 103 C -6.0441 -4.5571 0.5905 0
M  V30 104 C -6.0204 -5.1586 3.0851 0
M  V30 105 C -1.8643 -2.6544 5.1062 0
M  V30 106 C -1.169 -0.8498 3.6663 0
M  V30 107 N -3.0245 -3.1121 5.6849 0
M  V30 108 C -1.3643 4.1071 -1.2632 0
M  V30 109 C -0.0968 0.5929 -0.155 0
M  V30 110 C 1.6209 1.7536 1.2458 0
M  V30 111 O -5.5922 -5.6653 0.3058 0
M  V30 112 N -6.2999 -3.6045 -0.3711 0
M  V30 113 C -7.0559 -6.3017 3.1072 0
M  V30 114 C -0.5574 -3.1481 5.1952 0
M  V30 115 C 0.1425 -1.3322 3.745 0
M  V30 116 O -2.4362 4.2796 -1.8299 0
M  V30 117 C -5.9086 -3.7652 -1.7759 0 CFG=2
M  V30 118 C -6.6076 -7.381 4.0967 0
M  V30 119 C -8.4568 -5.8135 3.4807 0
M  V30 120 C 0.4413 -2.4646 4.4973 0
M  V30 121 C -4.4035 -3.4141 -1.8867 0
M  V30 122 C -6.7427 -2.8927 -2.7186 0
M  V30 123 O -3.9507 -2.5291 -2.6116 0
M  V30 124 N -3.6051 -4.2358 -1.1156 0
M  V30 125 C -8.1842 -3.3072 -2.7638 0
M  V30 126 C -2.1981 -4.0095 -0.8783 0
M  V30 127 C -9.2594 -2.7461 -2.0015 0
M  V30 128 C -8.7262 -4.3112 -3.5433 0
M  V30 129 C -1.9591 -2.9721 0.2206 0
M  V30 130 C -10.4194 -3.444 -2.3376 0
M  V30 131 C -9.3526 -1.7068 -1.053 0
M  V30 132 N -10.0661 -4.3873 -3.2732 0
M  V30 133 O -2.5234 -3.4153 1.4641 0
M  V30 134 C -11.6669 -3.16 -1.7686 0
M  V30 135 C -10.591 -1.4107 -0.4728 0
M  V30 136 C -11.7301 -2.129 -0.8265 0
M  V30 137 H 5.4783 -0.0813 0.8041 0
M  V30 138 H 6.3677 1.075 2.386 0
M  V30 139 H 3.1913 -1.7882 1.1954 0
M  V30 140 H 3.84 1.8993 3.5937 0
M  V30 141 H 7.0618 1.4019 4.6933 0
M  V30 142 H 4.426 -3.853 0.2319 0
M  V30 143 H 5.0034 -0.6651 5.6049 0
M  V30 144 H 6.2067 0.1691 6.5851 0
M  V30 145 H 4.875 1.0844 5.8768 0
M  V30 146 H 8.0404 -0.4595 3.3615 0
M  V30 147 H 8.0347 -0.8063 5.0954 0
M  V30 148 H 6.845 -1.58 4.0399 0
M  V30 149 H 2.2975 -2.5352 -0.7877 0
M  V30 150 H 6.6354 -2.7215 -0.2153 0
M  V30 151 H 6.7739 -4.1718 0.786 0
M  V30 152 H 6.8893 -2.575 1.5302 0
M  V30 153 H 3.4592 -3.7783 2.5245 0
M  V30 154 H 5.0017 -3.1692 3.1547 0
M  V30 155 H 4.9144 -4.777 2.4281 0
M  V30 156 H 3.2704 4.021 2.8489 0
M  V30 157 H 2.7243 -0.553 -2.834 0
M  V30 158 H 5.3019 6.1914 2.7839 0
M  V30 159 H 3.7701 3.8404 5.2747 0
M  V30 160 H 4.2968 -2.0027 -3.8371 0
M  V30 161 H 2.8109 -2.2326 -4.7332 0
M  V30 162 H 6.1008 4.7327 5.3144 0
M  V30 163 H 5.0452 5.5372 6.476 0
M  V30 164 H 5.4826 6.3608 4.9776 0
M  V30 165 H 2.9548 6.6716 4.4402 0
M  V30 166 H 2.5888 5.8736 5.977 0
M  V30 167 H 1.8891 5.2546 4.4758 0
M  V30 168 H 0.788 -0.2035 -3.99 0
M  V30 169 H 4.8904 7.7319 0.9949 0
M  V30 170 H -1.5299 -1.9113 -3.2496 0
M  V30 171 H 1.3264 -4.689 -4.0191 0
M  V30 172 H 6.7583 5.9934 -0.5283 0
M  V30 173 H 4.9525 7.9112 -1.4967 0
M  V30 174 H 3.3646 7.3321 -0.9529 0
M  V30 175 H 4.5328 6.2006 -1.6498 0
M  V30 176 H -2.4627 -1.5211 -5.5732 0
M  V30 177 H -0.9461 -0.7825 -6.047 0
M  V30 178 H 6.1601 -3.2252 -2.8096 0
M  V30 179 H 2.2946 -6.9028 -3.3905 0
M  V30 180 H -3.5478 -0.716 -3.1405 0
M  V30 181 H 0.2364 -2.9734 -5.6584 0
M  V30 182 H 4.7259 -8.0006 -2.5046 0
M  V30 183 H 7.7595 -4.9733 -2.0869 0
M  V30 184 H 9.1056 6.3392 0.3494 0
M  V30 185 H -3.0582 2.2003 -3.0089 0
M  V30 186 H -1.2551 -4.0638 -4.032 0
M  V30 187 H -2.6012 -4.0388 -5.184 0
M  V30 188 H -1.1766 -5.0478 -5.4882 0
M  V30 189 H -0.5564 -2.3093 -7.9089 0
M  V30 190 H -2.1257 -3.0754 -7.6026 0
M  V30 191 H -0.6551 -4.0611 -7.692 0
M  V30 192 H 7.0534 -7.3358 -1.9288 0
M  V30 193 H 7.9128 3.8925 1.6286 0
M  V30 194 H 8.9923 5.4466 3.2948 0
M  V30 195 H 9.4957 7.0377 2.7671 0
M  V30 196 H -4.024 1.9474 -5.1926 0
M  V30 197 H -5.0807 2.8357 -4.1132 0
M  V30 198 H 11.4179 5.7873 3.3193 0
M  V30 199 H -3.7992 3.236 -1.3389 0
M  V30 200 H 7.6437 2.0759 0.3951 0
M  V30 201 H 10.4805 3.473 2.9714 0
M  V30 202 H 10.8036 3.6469 1.233 0
M  V30 203 H 12.1328 3.7008 2.386 0
M  V30 204 H 11.6087 7.3128 1.345 0
M  V30 205 H 11.3725 5.9253 0.2636 0
M  V30 206 H 12.7843 5.9915 1.3222 0
M  V30 207 H -6.1412 2.3652 0.1639 0
M  V30 208 H -4.8869 -0.6314 -6.0167 0
M  V30 209 H 6.8725 2.7607 -2.4222 0
M  V30 210 H 8.8802 0.7402 -1.3209 0
M  V30 211 H 9.962 1.8863 -0.5033 0
M  V30 212 H 9.3788 2.2282 -2.1369 0
M  V30 213 H -3.9798 4.4861 0.6613 0
M  V30 214 H -5.129 4.0402 1.9087 0
M  V30 215 H -7.3533 2.7617 -2.9499 0
M  V30 216 H -7.2105 -1.5657 -6.1152 0
M  V30 217 H -6.021 0.4538 1.058 0
M  V30 218 H -7.0359 4.6301 0.3936 0
M  V30 219 H -9.7704 -1.037 -5.1034 0
M  V30 220 H -9.781 2.4457 -2.5773 0
M  V30 221 H 4.6432 3.1353 -2.7719 0
M  V30 222 H 4.2084 1.4205 -2.5617 0
M  V30 223 H -3.725 -0.9018 1.7992 0
M  V30 224 H -6.1745 6.2045 2.1034 0
M  V30 225 H -5.0125 6.865 0.9386 0
M  V30 226 H -6.7535 7.0764 0.6792 0
M  V30 227 H -6.0144 4.4641 -1.8423 0
M  V30 228 H -4.8422 5.7338 -1.4411 0
M  V30 229 H -6.566 6.1116 -1.5753 0
M  V30 230 H -10.9779 0.5619 -3.637 0
M  V30 231 H 3.2543 3.4532 -0.596 0
M  V30 232 H -5.4024 -0.1917 4.2873 0
M  V30 233 H -3.9283 0.6756 3.9143 0
M  V30 234 H -4.3488 -3.1676 2.2497 0
M  V30 235 H 1.0846 3.8719 -0.4309 0
M  V30 236 H -7.3054 -3.6996 2.1052 0
M  V30 237 H -5.0815 -2.55 5.6582 0
M  V30 238 H -0.6041 2.6394 -2.4906 0
M  V30 239 H -0.3676 2.4179 0.9013 0
M  V30 240 H -5.0199 -5.5832 2.9248 0
M  V30 241 H -5.9911 -4.6914 4.0789 0
M  V30 242 H -1.39 0.0387 3.079 0
M  V30 243 H -3.0819 -3.9148 6.2964 0
M  V30 244 H -1.0845 4.6735 -0.3594 0
M  V30 245 H 0.6577 0.0484 -0.7259 0
M  V30 246 H -0.3702 -0.0276 0.7038 0
M  V30 247 H -0.9917 0.7008 -0.7745 0
M  V30 248 H 2.0347 2.717 1.5495 0
M  V30 249 H 1.3113 1.2303 2.1548 0
M  V30 250 H 2.4159 1.1649 0.7786 0
M  V30 251 H -6.6572 -2.7009 -0.0709 0
M  V30 252 H -7.1104 -6.7654 2.1157 0
M  V30 253 H -0.3191 -4.0249 5.7883 0
M  V30 254 H 0.9443 -0.816 3.2227 0
M  V30 255 H -6.017 -4.8234 -2.0469 0
M  V30 256 H -5.6236 -7.7757 3.8226 0
M  V30 257 H -6.5429 -6.9844 5.1158 0
M  V30 258 H -7.3117 -8.2199 4.1036 0
M  V30 259 H -8.8655 -5.1473 2.7154 0
M  V30 260 H -8.449 -5.2755 4.4346 0
M  V30 261 H -9.1493 -6.6571 3.5751 0
M  V30 262 H 1.4718 -2.8112 4.5502 0
M  V30 263 H -6.3312 -2.9579 -3.7338 0
M  V30 264 H -6.6694 -1.8386 -2.4246 0
M  V30 265 H -4.0544 -4.9794 -0.5828 0
M  V30 266 H -1.7429 -3.6922 -1.8142 0
M  V30 267 H -1.7731 -4.9742 -0.5839 0
M  V30 268 H -8.2701 -4.9854 -4.2554 0
M  V30 269 H -0.8836 -2.8264 0.3641 0
M  V30 270 H -2.4143 -2.0098 -0.0329 0
M  V30 271 H -8.475 -1.1272 -0.7789 0
M  V30 272 H -10.7093 -5.0435 -3.6925 0
M  V30 273 H -1.9344 -3.0672 2.1624 0
M  V30 274 H -12.5564 -3.7169 -2.0426 0
M  V30 275 H -10.6577 -0.6096 0.2587 0
M  V30 276 H -12.6832 -1.8837 -0.3641 0
M  V30 END ATOM
M  V30 BEGIN BOND
M  V30 1 2 1 2
M  V30 2 1 2 3
M  V30 3 1 2 4
M  V30 4 1 3 5
M  V30 5 1 4 6
M  V30 6 1 4 7
M  V30 7 1 5 8
M  V30 8 1 5 9
M  V30 9 1 6 10
M  V30 10 1 7 11
M  V30 11 1 7 12
M  V30 12 2 8 13
M  V30 13 1 8 14
M  V30 14 1 9 15
M  V30 15 1 9 16
M  V30 16 2 10 17
M  V30 17 1 10 18
M  V30 18 1 14 19
M  V30 19 1 18 20
M  V30 20 1 18 21
M  V30 21 1 19 22
M  V30 22 1 19 23
M  V30 23 1 20 24
M  V30 24 1 21 25
M  V30 25 1 21 26
M  V30 26 2 22 27
M  V30 27 1 22 28
M  V30 28 1 23 29
M  V30 29 2 24 30
M  V30 30 1 24 31
M  V30 31 1 28 32
M  V30 32 1 29 33
M  V30 33 2 29 34
M  V30 34 1 31 35
M  V30 35 1 31 36
M  V30 36 1 32 37
M  V30 37 1 32 38
M  V30 38 2 33 39
M  V30 39 1 33 40
M  V30 40 1 34 41
M  V30 41 1 35 42
M  V30 42 2 37 43
M  V30 43 1 37 44
M  V30 44 1 38 45
M  V30 45 1 39 46
M  V30 46 2 40 47
M  V30 47 2 42 48
M  V30 48 1 42 49
M  V30 49 1 44 50
M  V30 50 1 45 51
M  V30 51 1 45 52
M  V30 52 2 46 53
M  V30 53 1 49 54
M  V30 54 1 49 55
M  V30 55 1 50 56
M  V30 56 1 50 57
M  V30 57 1 54 58
M  V30 58 1 55 59
M  V30 59 2 56 60
M  V30 60 1 56 61
M  V30 61 1 57 62
M  V30 62 2 58 63
M  V30 63 1 58 64
M  V30 64 1 59 65
M  V30 65 1 59 66
M  V30 66 1 61 67
M  V30 67 1 62 68
M  V30 68 2 62 69
M  V30 69 1 64 70
M  V30 70 1 64 71
M  V30 71 1 67 72
M  V30 72 1 67 73
M  V30 73 2 68 74
M  V30 74 1 68 75
M  V30 75 1 69 76
M  V30 76 1 70 77
M  V30 77 2 72 78
M  V30 78 1 72 79
M  V30 79 1 73 80
M  V30 80 1 74 81
M  V30 81 2 75 82
M  V30 82 2 77 83
M  V30 83 1 77 84
M  V30 84 1 79 85
M  V30 85 1 80 86
M  V30 86 1 80 87
M  V30 87 2 81 88
M  V30 88 1 84 89
M  V30 89 1 85 90
M  V30 90 1 85 91
M  V30 91 1 89 92
M  V30 92 2 90 93
M  V30 93 1 90 94
M  V30 94 1 91 95
M  V30 95 2 92 96
M  V30 96 1 92 97
M  V30 97 1 94 98
M  V30 98 1 95 99
M  V30 99 2 95 100
M  V30 100 1 97 101
M  V30 101 1 97 102
M  V30 102 1 98 103
M  V30 103 1 98 104
M  V30 104 2 99 105
M  V30 105 1 99 106
M  V30 106 1 100 107
M  V30 107 1 101 108
M  V30 108 1 102 109
M  V30 109 1 102 110
M  V30 110 2 103 111
M  V30 111 1 103 112
M  V30 112 1 104 113
M  V30 113 1 105 114
M  V30 114 2 106 115
M  V30 115 2 108 116
M  V30 116 1 112 117
M  V30 117 1 113 118
M  V30 118 1 113 119
M  V30 119 2 114 120
M  V30 120 1 117 121
M  V30 121 1 117 122
M  V30 122 2 121 123
M  V30 123 1 121 124
M  V30 124 1 122 125
M  V30 125 1 124 126
M  V30 126 1 125 127
M  V30 127 2 125 128
M  V30 128 1 126 129
M  V30 129 2 127 130
M  V30 130 1 127 131
M  V30 131 1 128 132
M  V30 132 1 129 133
M  V30 133 1 130 134
M  V30 134 2 131 135
M  V30 135 2 134 136
M  V30 136 1 39 41
M  V30 137 1 47 53
M  V30 138 1 74 76
M  V30 139 1 82 88
M  V30 140 1 105 107
M  V30 141 1 115 120
M  V30 142 1 130 132
M  V30 143 1 135 136
M  V30 144 1 3 137
M  V30 145 1 4 138
M  V30 146 1 5 139
M  V30 147 1 6 140
M  V30 148 1 7 141
M  V30 149 1 9 142
M  V30 150 1 11 143
M  V30 151 1 11 144
M  V30 152 1 11 145
M  V30 153 1 12 146
M  V30 154 1 12 147
M  V30 155 1 12 148
M  V30 156 1 14 149
M  V30 157 1 15 150
M  V30 158 1 15 151
M  V30 159 1 15 152
M  V30 160 1 16 153
M  V30 161 1 16 154
M  V30 162 1 16 155
M  V30 163 1 18 156
M  V30 164 1 19 157
M  V30 165 1 20 158
M  V30 166 1 21 159
M  V30 167 1 23 160
M  V30 168 1 23 161
M  V30 169 1 25 162
M  V30 170 1 25 163
M  V30 171 1 25 164
M  V30 172 1 26 165
M  V30 173 1 26 166
M  V30 174 1 26 167
M  V30 175 1 28 168
M  V30 176 1 31 169
M  V30 177 1 32 170
M  V30 178 1 34 171
M  V30 179 1 35 172
M  V30 180 1 36 173
M  V30 181 1 36 174
M  V30 182 1 36 175
M  V30 183 1 38 176
M  V30 184 1 38 177
M  V30 185 1 40 178
M  V30 186 1 41 179
M  V30 187 1 44 180
M  V30 188 1 45 181
M  V30 189 1 46 182
M  V30 190 1 47 183
M  V30 191 1 49 184
M  V30 192 1 50 185
M  V30 193 1 51 186
M  V30 194 1 51 187
M  V30 195 1 51 188
M  V30 196 1 52 189
M  V30 197 1 52 190
M  V30 198 1 52 191
M  V30 199 1 53 192
M  V30 200 1 54 193
M  V30 201 1 55 194
M  V30 202 1 55 195
M  V30 203 1 57 196
M  V30 204 1 57 197
M  V30 205 1 59 198
M  V30 206 1 61 199
M  V30 207 1 64 200
M  V30 208 1 65 201
M  V30 209 1 65 202
M  V30 210 1 65 203
M  V30 211 1 66 204
M  V30 212 1 66 205
M  V30 213 1 66 206
M  V30 214 1 67 207
M  V30 215 1 69 208
M  V30 216 1 70 209
M  V30 217 1 71 210
M  V30 218 1 71 211
M  V30 219 1 71 212
M  V30 220 1 73 213
M  V30 221 1 73 214
M  V30 222 1 75 215
M  V30 223 1 76 216
M  V30 224 1 79 217
M  V30 225 1 80 218
M  V30 226 1 81 219
M  V30 227 1 82 220
M  V30 228 1 84 221
M  V30 229 1 84 222
M  V30 230 1 85 223
M  V30 231 1 86 224
M  V30 232 1 86 225
M  V30 233 1 86 226
M  V30 234 1 87 227
M  V30 235 1 87 228
M  V30 236 1 87 229
M  V30 237 1 88 230
M  V30 238 1 89 231
M  V30 239 1 91 232
M  V30 240 1 91 233
M  V30 241 1 94 234
M  V30 242 1 97 235
M  V30 243 1 98 236
M  V30 244 1 100 237
M  V30 245 1 101 238
M  V30 246 1 102 239
M  V30 247 1 104 240
M  V30 248 1 104 241
M  V30 249 1 106 242
M  V30 250 1 107 243
M  V30 251 1 108 244
M  V30 252 1 109 245
M  V30 253 1 109 246
M  V30 254 1 109 247
M  V30 255 1 110 248
M  V30 256 1 110 249
M  V30 257 1 110 250
M  V30 258 1 112 251
M  V30 259 1 113 252
M  V30 260 1 114 253
M  V30 261 1 115 254
M  V30 262 1 117 255
M  V30 263 1 118 256
M  V30 264 1 118 257
M  V30 265 1 118 258
M  V30 266 1 119 259
M  V30 267 1 119 260
M  V30 268 1 119 261
M  V30 269 1 120 262
M  V30 270 1 122 263
M  V30 271 1 122 264
M  V30 272 1 124 265
M  V30 273 1 126 266
M  V30 274 1 126 267
M  V30 275 1 128 268
M  V30 276 1 129 269
M  V30 277 1 129 270
M  V30 278 1 131 271
M  V30 279 1 132 272
M  V30 280 1 133 273
M  V30 281 1 134 274
M  V30 282 1 135 275
M  V30 283 1 136 276
M  V30 END BOND
M  V30 BEGIN COLLECTION
M  V30 MDLV30/STEABS ATOMS=(14 4 5 18 19 31 32 49 50 64 67 85 97 98 117)
M  V30 END COLLECTION
M  V30 END CTAB
M  END
>  <level_0>
4742

>  <index>
4742

>  <NO.>
4743

>  <Name>
valinegramicidin a

>  <SMILES>
CC(C)C[C@@H](NC(=O)[C@H](C)NC(=O)CNC(=O)[C@@H](NC=O)C(C)C)C(=O)N[C@@H](C)C(=O)N[C@@H](C(=O)N[C@H](C(=O)N[C@@H](C(=O)N[C@@H](Cc1c[nH]c2ccccc12)C(=O)N[C@H](CC(C)C)C(=O)N[C@@H](Cc1c[nH]c2ccccc12)C(=O)N[C@H](CC(C)C)C(=O)N[C@@H](Cc1c[nH]c2ccccc12)C(=O)N[C@H](CC(C)C)C(=O)N[C@@H](Cc1c[nH]c2ccccc12)C(=O)NCCO)C(C)C)C(C)C)C(C)C

>  <logBB>


>  <Class>
-1

>  <MW>
1881.07

>  <nHBAcc>
17

>  <nHBDon>
21

>  <SLogP>
4.37

>  <TopoPSA>
548.99

>  <MMFF94 Energy>
190.03

$$$$
CC1OC(=O)C(C(C)C)NC(=O)C(C(C)C)OC(=O)C(C(C)C)NC(=O)C(C)OC(=O)C(C(C)C)NC(=O)C(C(C)C)OC(=O)C(C(C)C)NC(=O)C(C)OC(=O)C(C(C)C)NC(=O)C(C(C)C)OC(=O)C(C(C)C)NC1=O
Actelion Java MolfileCreator 2.0

  0  0  0  0  0  0              0 V3000
M  V30 BEGIN CTAB
M  V30 COUNTS 168 168 0 0 0
M  V30 BEGIN ATOM
M  V30 1 O -5.513 1.5727 0.8647 0
M  V30 2 C -4.5751 1.2624 0.1355 0
M  V30 3 O -4.6686 0.4279 -0.9285 0
M  V30 4 C -3.1423 1.7661 0.3882 0
M  V30 5 C -5.9653 -0.1699 -1.1665 0
M  V30 6 N -2.8132 1.3405 1.7493 0
M  V30 7 C -2.0632 1.4488 -0.6752 0
M  V30 8 C -5.7617 -1.6947 -1.2041 0
M  V30 9 C -6.5157 0.3527 -2.5122 0
M  V30 10 C -2.4881 0.0409 2.0883 0
M  V30 11 C -2.3444 2.1886 -1.9907 0
M  V30 12 C -0.6636 1.8556 -0.1905 0
M  V30 13 O -6.6514 -2.4776 -0.8869 0
M  V30 14 N -4.538 -2.0852 -1.7045 0
M  V30 15 C -7.8893 -0.2414 -2.8395 0
M  V30 16 C -6.6232 1.8825 -2.5142 0
M  V30 17 O -2.3619 -0.8583 1.2628 0
M  V30 18 C -2.3593 -0.184 3.6063 0
M  V30 19 C -4.1117 -3.4773 -1.8675 0
M  V30 20 O -1.8417 0.9973 4.2474 0
M  V30 21 C -3.7365 -0.46 4.1918 0
M  V30 22 C -3.6674 -4.0591 -0.5094 0
M  V30 23 C -5.1079 -4.3817 -2.6341 0
M  V30 24 C -0.5105 1.1988 4.0554 0
M  V30 25 O -4.1613 -3.8231 0.5833 0
M  V30 26 O -2.6035 -4.8906 -0.71 0
M  V30 27 C -5.4875 -3.7637 -3.9871 0
M  V30 28 C -4.5395 -5.7838 -2.8873 0
M  V30 29 O 0.2598 0.3893 3.5502 0
M  V30 30 C -0.0801 2.5937 4.5192 0
M  V30 31 C -2.0785 -5.5539 0.4545 0
M  V30 32 N 1.0202 2.9771 3.6326 0
M  V30 33 C 0.302 2.5997 6.011 0
M  V30 34 C -0.6874 -6.0463 0.0389 0
M  V30 35 C -2.9726 -6.7273 0.8423 0
M  V30 36 C 1.1179 4.2062 3.0162 0
M  V30 37 C 1.5574 1.7778 6.3222 0
M  V30 38 C 0.4806 4.03 6.5275 0
M  V30 39 O -0.4321 -7.2351 -0.1594 0
M  V30 40 N 0.3199 -5.1402 -0.124 0
M  V30 41 O 0.3398 5.1219 3.2606 0
M  V30 42 C 2.3058 4.3106 2.0317 0
M  V30 43 C 0.3187 -3.6822 0.0608 0
M  V30 44 O 2.1482 3.1418 1.1843 0
M  V30 45 C 2.2555 5.5889 1.1685 0
M  V30 46 C 0.789 -3.0651 -1.267 0
M  V30 47 C 1.2435 -3.2957 1.2317 0
M  V30 48 C 3.0668 2.188 0.9222 0
M  V30 49 C 2.6799 6.8189 1.9784 0
M  V30 50 C 3.1361 5.4838 -0.0819 0
M  V30 51 O 1.6309 -3.5619 -2.0015 0
M  V30 52 O 0.1304 -1.8973 -1.4948 0
M  V30 53 C 1.4151 -1.7826 1.3532 0
M  V30 54 C 0.7088 -3.8429 2.5615 0
M  V30 55 O 2.7473 1.2493 0.1887 0
M  V30 56 C 4.4682 2.2868 1.5599 0
M  V30 57 C 0.3018 -1.2254 -2.7522 0
M  V30 58 N 5.3503 1.451 0.7436 0
M  V30 59 C 4.5193 1.8616 3.0439 0
M  V30 60 C 1.7233 -1.1377 -3.3703 0
M  V30 61 C -0.8275 -1.6621 -3.7209 0
M  V30 62 C 6.3191 1.9566 -0.0917 0
M  V30 63 C 4.0888 0.4142 3.2817 0
M  V30 64 C 5.9144 2.0948 3.6337 0
M  V30 65 O 1.9936 -1.4939 -4.514 0
M  V30 66 N 2.6522 -0.5105 -2.5621 0
M  V30 67 C -0.971 -0.7227 -4.9218 0
M  V30 68 C -0.7306 -3.1157 -4.1891 0
M  V30 69 O 6.624 3.1455 -0.099 0
M  V30 70 C 6.9463 0.8989 -1.0245 0
M  V30 71 C 3.9949 -0.1814 -3.0651 0
M  V30 72 O 6.0597 0.6366 -2.1277 0
M  V30 73 C 8.2563 1.4034 -1.6123 0
M  V30 74 C 4.963 -0.1213 -1.8679 0
M  V30 75 C 3.9038 1.1002 -3.9417 0
M  V30 76 O 4.7889 -0.7081 -0.8023 0
M  V30 77 C 3.6229 2.3739 -3.1374 0
M  V30 78 C 5.1118 1.2898 -4.8637 0
M  V30 79 H -3.2307 2.86 0.4442 0
M  V30 80 H -6.6717 0.0364 -0.3536 0
M  V30 81 H -3.0279 1.984 2.5035 0
M  V30 82 H -2.0482 0.3751 -0.8952 0
M  V30 83 H -5.8204 0.0743 -3.3151 0
M  V30 84 H -1.5496 1.9978 -2.7198 0
M  V30 85 H -3.282 1.8642 -2.4478 0
M  V30 86 H -2.4004 3.2712 -1.8332 0
M  V30 87 H -0.3432 1.2555 0.6659 0
M  V30 88 H -0.6388 2.9105 0.1041 0
M  V30 89 H 0.0817 1.7116 -0.9795 0
M  V30 90 H -3.833 -1.3593 -1.7659 0
M  V30 91 H -8.6118 -0.0303 -2.0437 0
M  V30 92 H -8.2823 0.1786 -3.7718 0
M  V30 93 H -7.8368 -1.3255 -2.9736 0
M  V30 94 H -5.6446 2.3545 -2.3897 0
M  V30 95 H -7.0365 2.2418 -3.4629 0
M  V30 96 H -7.2756 2.2335 -1.7072 0
M  V30 97 H -1.7038 -1.0431 3.793 0
M  V30 98 H -3.2003 -3.3891 -2.472 0
M  V30 99 H -4.4073 0.3949 4.0496 0
M  V30 100 H -4.1977 -1.3364 3.7255 0
M  V30 101 H -3.6655 -0.6308 5.2712 0
M  V30 102 H -6.0237 -4.5125 -2.0469 0
M  V30 103 H -6.1787 -4.416 -4.5319 0
M  V30 104 H -4.602 -3.6123 -4.614 0
M  V30 105 H -5.9851 -2.7975 -3.8658 0
M  V30 106 H -3.5714 -5.7354 -3.3973 0
M  V30 107 H -4.411 -6.3339 -1.9508 0
M  V30 108 H -5.2201 -6.3739 -3.5108 0
M  V30 109 H -0.9198 3.275 4.3349 0
M  V30 110 H -1.9752 -4.8584 1.2948 0
M  V30 111 H 1.5872 2.2107 3.2857 0
M  V30 112 H -0.5281 2.1515 6.5734 0
M  V30 113 H -3.9662 -6.3851 1.1477 0
M  V30 114 H -2.5372 -7.2979 1.669 0
M  V30 115 H -3.121 -7.4071 -0.0041 0
M  V30 116 H 1.7541 1.7734 7.4 0
M  V30 117 H 2.4435 2.1876 5.8269 0
M  V30 118 H 1.4409 0.7361 6.0084 0
M  V30 119 H 0.6539 4.0308 7.6091 0
M  V30 120 H -0.4156 4.629 6.3349 0
M  V30 121 H 1.3328 4.5273 6.0529 0
M  V30 122 H 1.1767 -5.5516 -0.4839 0
M  V30 123 H 3.2292 4.2784 2.6122 0
M  V30 124 H -0.7037 -3.3436 0.2504 0
M  V30 125 H 1.2257 5.7446 0.8209 0
M  V30 126 H 2.2382 -3.731 1.0654 0
M  V30 127 H 2.6144 7.7257 1.3674 0
M  V30 128 H 2.0429 6.969 2.8545 0
M  V30 129 H 3.714 6.7232 2.3273 0
M  V30 130 H 4.1816 5.296 0.1823 0
M  V30 131 H 2.7979 4.6797 -0.743 0
M  V30 132 H 3.0986 6.4135 -0.6603 0
M  V30 133 H 1.9754 -1.5369 2.2587 0
M  V30 134 H 1.9753 -1.3783 0.5057 0
M  V30 135 H 0.4478 -1.274 1.4011 0
M  V30 136 H 1.3684 -3.5631 3.3902 0
M  V30 137 H -0.2898 -3.4481 2.7785 0
M  V30 138 H 0.6493 -4.9355 2.5499 0
M  V30 139 H 4.8062 3.3217 1.4527 0
M  V30 140 H 0.0806 -0.1776 -2.5057 0
M  V30 141 H 5.0535 0.4838 0.5858 0
M  V30 142 H 3.8298 2.4883 3.6171 0
M  V30 143 H -1.7661 -1.5874 -3.155 0
M  V30 144 H 4.1168 0.174 4.3502 0
M  V30 145 H 3.0624 0.2622 2.9421 0
M  V30 146 H 4.7365 -0.2995 2.7637 0
M  V30 147 H 6.665 1.4472 3.1689 0
M  V30 148 H 6.2261 3.1353 3.494 0
M  V30 149 H 5.9171 1.8891 4.7097 0
M  V30 150 H 2.4249 -0.2662 -1.5991 0
M  V30 151 H -1.8903 -0.9487 -5.4735 0
M  V30 152 H -0.1383 -0.8161 -5.6242 0
M  V30 153 H -1.0307 0.3212 -4.5979 0
M  V30 154 H -1.5614 -3.3571 -4.8618 0
M  V30 155 H 0.1995 -3.3127 -4.7289 0
M  V30 156 H -0.7931 -3.811 -3.3472 0
M  V30 157 H 7.143 -0.0221 -0.4621 0
M  V30 158 H 4.3278 -1.0215 -3.6874 0
M  V30 159 H 8.0957 2.2946 -2.2298 0
M  V30 160 H 8.6992 0.6437 -2.2651 0
M  V30 161 H 8.975 1.6541 -0.8258 0
M  V30 162 H 3.0453 0.9739 -4.6162 0
M  V30 163 H 3.4573 3.2213 -3.8119 0
M  V30 164 H 2.7226 2.2641 -2.5245 0
M  V30 165 H 4.4539 2.6395 -2.4784 0
M  V30 166 H 6.0096 1.6042 -4.3262 0
M  V30 167 H 4.8985 2.0647 -5.6089 0
M  V30 168 H 5.3388 0.3662 -5.4057 0
M  V30 END ATOM
M  V30 BEGIN BOND
M  V30 1 2 1 2
M  V30 2 1 2 3
M  V30 3 1 2 4
M  V30 4 1 3 5
M  V30 5 1 4 6
M  V30 6 1 4 7
M  V30 7 1 5 8
M  V30 8 1 5 9
M  V30 9 1 6 10
M  V30 10 1 7 11
M  V30 11 1 7 12
M  V30 12 2 8 13
M  V30 13 1 8 14
M  V30 14 1 9 15
M  V30 15 1 9 16
M  V30 16 2 10 17
M  V30 17 1 10 18
M  V30 18 1 14 19
M  V30 19 1 18 20
M  V30 20 1 18 21
M  V30 21 1 19 22
M  V30 22 1 19 23
M  V30 23 1 20 24
M  V30 24 2 22 25
M  V30 25 1 22 26
M  V30 26 1 23 27
M  V30 27 1 23 28
M  V30 28 2 24 29
M  V30 29 1 24 30
M  V30 30 1 26 31
M  V30 31 1 30 32
M  V30 32 1 30 33
M  V30 33 1 31 34
M  V30 34 1 31 35
M  V30 35 1 32 36
M  V30 36 1 33 37
M  V30 37 1 33 38
M  V30 38 2 34 39
M  V30 39 1 34 40
M  V30 40 2 36 41
M  V30 41 1 36 42
M  V30 42 1 40 43
M  V30 43 1 42 44
M  V30 44 1 42 45
M  V30 45 1 43 46
M  V30 46 1 43 47
M  V30 47 1 44 48
M  V30 48 1 45 49
M  V30 49 1 45 50
M  V30 50 2 46 51
M  V30 51 1 46 52
M  V30 52 1 47 53
M  V30 53 1 47 54
M  V30 54 2 48 55
M  V30 55 1 48 56
M  V30 56 1 52 57
M  V30 57 1 56 58
M  V30 58 1 56 59
M  V30 59 1 57 60
M  V30 60 1 57 61
M  V30 61 1 58 62
M  V30 62 1 59 63
M  V30 63 1 59 64
M  V30 64 2 60 65
M  V30 65 1 60 66
M  V30 66 1 61 67
M  V30 67 1 61 68
M  V30 68 2 62 69
M  V30 69 1 62 70
M  V30 70 1 66 71
M  V30 71 1 70 72
M  V30 72 1 70 73
M  V30 73 1 71 74
M  V30 74 1 71 75
M  V30 75 2 74 76
M  V30 76 1 75 77
M  V30 77 1 75 78
M  V30 78 1 72 74
M  V30 79 1 4 79
M  V30 80 1 5 80
M  V30 81 1 6 81
M  V30 82 1 7 82
M  V30 83 1 9 83
M  V30 84 1 11 84
M  V30 85 1 11 85
M  V30 86 1 11 86
M  V30 87 1 12 87
M  V30 88 1 12 88
M  V30 89 1 12 89
M  V30 90 1 14 90
M  V30 91 1 15 91
M  V30 92 1 15 92
M  V30 93 1 15 93
M  V30 94 1 16 94
M  V30 95 1 16 95
M  V30 96 1 16 96
M  V30 97 1 18 97
M  V30 98 1 19 98
M  V30 99 1 21 99
M  V30 100 1 21 100
M  V30 101 1 21 101
M  V30 102 1 23 102
M  V30 103 1 27 103
M  V30 104 1 27 104
M  V30 105 1 27 105
M  V30 106 1 28 106
M  V30 107 1 28 107
M  V30 108 1 28 108
M  V30 109 1 30 109
M  V30 110 1 31 110
M  V30 111 1 32 111
M  V30 112 1 33 112
M  V30 113 1 35 113
M  V30 114 1 35 114
M  V30 115 1 35 115
M  V30 116 1 37 116
M  V30 117 1 37 117
M  V30 118 1 37 118
M  V30 119 1 38 119
M  V30 120 1 38 120
M  V30 121 1 38 121
M  V30 122 1 40 122
M  V30 123 1 42 123
M  V30 124 1 43 124
M  V30 125 1 45 125
M  V30 126 1 47 126
M  V30 127 1 49 127
M  V30 128 1 49 128
M  V30 129 1 49 129
M  V30 130 1 50 130
M  V30 131 1 50 131
M  V30 132 1 50 132
M  V30 133 1 53 133
M  V30 134 1 53 134
M  V30 135 1 53 135
M  V30 136 1 54 136
M  V30 137 1 54 137
M  V30 138 1 54 138
M  V30 139 1 56 139
M  V30 140 1 57 140
M  V30 141 1 58 141
M  V30 142 1 59 142
M  V30 143 1 61 143
M  V30 144 1 63 144
M  V30 145 1 63 145
M  V30 146 1 63 146
M  V30 147 1 64 147
M  V30 148 1 64 148
M  V30 149 1 64 149
M  V30 150 1 66 150
M  V30 151 1 67 151
M  V30 152 1 67 152
M  V30 153 1 67 153
M  V30 154 1 68 154
M  V30 155 1 68 155
M  V30 156 1 68 156
M  V30 157 1 70 157
M  V30 158 1 71 158
M  V30 159 1 73 159
M  V30 160 1 73 160
M  V30 161 1 73 161
M  V30 162 1 75 162
M  V30 163 1 77 163
M  V30 164 1 77 164
M  V30 165 1 77 165
M  V30 166 1 78 166
M  V30 167 1 78 167
M  V30 168 1 78 168
M  V30 END BOND
M  V30 END CTAB
M  END
>  <level_0>
4777

>  <index>
4777

>  <NO.>
4778

>  <Name>
valinomycin

>  <SMILES>
CC1OC(=O)C(C(C)C)NC(=O)C(C(C)C)OC(=O)C(C(C)C)NC(=O)C(C)OC(=O)C(C(C)C)NC(=O)C(C(C)C)OC(=O)C(C(C)C)NC(=O)C(C)OC(=O)C(C(C)C)NC(=O)C(C(C)C)OC(=O)C(C(C)C)NC1=O

>  <logBB>


>  <Class>
-1

>  <MW>
1110.63

>  <nHBAcc>
18

>  <nHBDon>
6

>  <SLogP>
2.34

>  <TopoPSA>
332.4

>  <MMFF94 Energy>
199.29

$$$$
CC[N+](C)(C/C=C/C1=C(C(=O)O)N2C(=O)[C@@H](NC(=O)/C(=N/OCF)c3nsc(N)n3)[C@H]2SC1)CC(N)=O
Actelion Java MolfileCreator 2.0

  0  0  0  0  0  0              0 V3000
M  V30 BEGIN CTAB
M  V30 COUNTS 63 65 0 0 0
M  V30 BEGIN ATOM
M  V30 1 S -1.6258 -1.7884 0.4062 0
M  V30 2 C -1.1117 -1.8203 -1.335 0 CFG=1
M  V30 3 C -2.1245 -0.0397 0.3406 0
M  V30 4 N -0.0384 -0.8616 -1.4726 0
M  V30 5 C -0.0894 -2.9077 -1.7978 0 CFG=1
M  V30 6 C -1.0399 0.875 -0.2192 0
M  V30 7 C -0.0547 0.426 -1.0332 0
M  V30 8 C 0.9109 -1.7125 -1.9141 0
M  V30 9 N 0.2729 -3.9728 -0.8355 0
M  V30 10 C -1.1338 2.2411 0.2888 0
M  V30 11 C 1.0992 1.2851 -1.4228 0
M  V30 12 O 2.0793 -1.5522 -2.1765 0
M  V30 13 C -0.5715 -5.0433 -0.6061 0
M  V30 14 C -1.2592 3.3384 -0.4781 0
M  V30 15 O 1.7685 1.9923 -0.6869 0
M  V30 16 O 1.3038 1.2317 -2.7515 0
M  V30 17 O -1.6239 -5.2173 -1.2019 0
M  V30 18 C -0.0564 -6.0308 0.4404 0
M  V30 19 C -1.4081 4.7254 0.078 0
M  V30 20 N 1.2388 -6.2167 0.4295 0
M  V30 21 C -1.0051 -6.6475 1.3698 0
M  V30 22 N -0.2889 5.7231 -0.2915 0 CHG=1
M  V30 23 O 1.6769 -7.0469 1.4757 0
M  V30 24 N -2.0785 -5.9589 1.7871 0
M  V30 25 N -0.8328 -7.9558 1.8511 0
M  V30 26 C 1.1087 5.1607 0.1355 0
M  V30 27 C -0.3187 5.9894 -1.8043 0
M  V30 28 C -0.5708 7.0187 0.483 0
M  V30 29 C 3.0977 -7.1478 1.4442 0
M  V30 30 S -2.9339 -6.9571 2.8103 0
M  V30 31 C -1.8224 -8.2589 2.6524 0
M  V30 32 C 1.1977 4.6201 1.5678 0
M  V30 33 C 0.6668 7.0542 -2.2617 0
M  V30 34 F 3.6139 -5.9242 1.7383 0
M  V30 35 N -1.9562 -9.4361 3.2725 0
M  V30 36 O 0.7455 5.2305 2.5323 0
M  V30 37 N 1.7781 3.3989 1.7213 0
M  V30 38 H -1.9257 -1.658 -2.0513 0
M  V30 39 H -2.377 0.2436 1.3685 0
M  V30 40 H -3.0349 0.0564 -0.2619 0
M  V30 41 H -0.3213 -3.3344 -2.7822 0
M  V30 42 H 1.1648 -3.9771 -0.3443 0
M  V30 43 H -1.1352 2.328 1.3776 0
M  V30 44 H -1.3185 3.2284 -1.5584 0
M  V30 45 H 2.1975 1.5985 -2.911 0
M  V30 46 H -1.4774 4.6999 1.1718 0
M  V30 47 H -2.3465 5.1597 -0.2891 0
M  V30 48 H 1.3737 4.3936 -0.5939 0
M  V30 49 H 1.8292 5.9807 0.0482 0
M  V30 50 H -1.341 6.2906 -2.0608 0
M  V30 51 H -0.0956 5.0445 -2.3105 0
M  V30 52 H 0.3045 7.6699 0.4175 0
M  V30 53 H -1.4437 7.5001 0.0312 0
M  V30 54 H -0.7869 6.7854 1.5275 0
M  V30 55 H 3.4244 -7.8567 2.2086 0
M  V30 56 H 3.4505 -7.4663 0.4586 0
M  V30 57 H 0.4534 8.0312 -1.8195 0
M  V30 58 H 1.7015 6.7838 -2.0352 0
M  V30 59 H 0.5948 7.1718 -3.3485 0
M  V30 60 H -1.2656 -10.1623 3.1277 0
M  V30 61 H -2.7345 -9.6506 3.8816 0
M  V30 62 H 1.8773 3.0132 2.6538 0
M  V30 63 H 2.0712 2.8082 0.94 0
M  V30 END ATOM
M  V30 BEGIN BOND
M  V30 1 1 1 2
M  V30 2 1 1 3
M  V30 3 1 2 4
M  V30 4 1 2 5
M  V30 5 1 3 6
M  V30 6 1 4 7
M  V30 7 1 4 8
M  V30 8 1 5 9
M  V30 9 1 6 10
M  V30 10 1 7 11
M  V30 11 2 8 12
M  V30 12 1 9 13
M  V30 13 2 10 14
M  V30 14 2 11 15
M  V30 15 1 11 16
M  V30 16 2 13 17
M  V30 17 1 13 18
M  V30 18 1 14 19
M  V30 19 2 18 20
M  V30 20 1 18 21
M  V30 21 1 19 22
M  V30 22 1 20 23
M  V30 23 2 21 24
M  V30 24 1 21 25
M  V30 25 1 22 26
M  V30 26 1 22 27
M  V30 27 1 22 28
M  V30 28 1 23 29
M  V30 29 1 24 30
M  V30 30 2 25 31
M  V30 31 1 26 32
M  V30 32 1 27 33
M  V30 33 1 29 34
M  V30 34 1 31 35
M  V30 35 2 32 36
M  V30 36 1 32 37
M  V30 37 1 5 8
M  V30 38 2 6 7
M  V30 39 1 30 31
M  V30 40 1 2 38
M  V30 41 1 3 39
M  V30 42 1 3 40
M  V30 43 1 5 41
M  V30 44 1 9 42
M  V30 45 1 10 43
M  V30 46 1 14 44
M  V30 47 1 16 45
M  V30 48 1 19 46
M  V30 49 1 19 47
M  V30 50 1 26 48
M  V30 51 1 26 49
M  V30 52 1 27 50
M  V30 53 1 27 51
M  V30 54 1 28 52
M  V30 55 1 28 53
M  V30 56 1 28 54
M  V30 57 1 29 55
M  V30 58 1 29 56
M  V30 59 1 33 57
M  V30 60 1 33 58
M  V30 61 1 33 59
M  V30 62 1 35 60
M  V30 63 1 35 61
M  V30 64 1 37 62
M  V30 65 1 37 63
M  V30 END BOND
M  V30 BEGIN COLLECTION
M  V30 MDLV30/STEABS ATOMS=(2 2 5)
M  V30 END COLLECTION
M  V30 END CTAB
M  END
>  <level_0>
4837

>  <index>
4837

>  <NO.>
4838

>  <Name>
cefluprenam

>  <SMILES>
CC[N+](C)(C/C=C/C1=C(C(=O)O)N2C(=O)[C@@H](NC(=O)/C(=N/OCF)c3nsc(N)n3)[C@H]2SC1)CC(N)=O

>  <logBB>


>  <Class>
-1

>  <MW>
557.14

>  <nHBAcc>
11

>  <nHBDon>
4

>  <SLogP>
-0.99

>  <TopoPSA>
203.19

>  <MMFF94 Energy>
109.62

$$$$
CO/N=C(/C(=O)N[C@@H]1C(=O)N2C(C(=O)O)=C(C[n+]3ccn4ncccc43)CS[C@H]12)c1nsc(N)n1
Actelion Java MolfileCreator 2.0

  0  0  0  0  0  0              0 V3000
M  V30 BEGIN CTAB
M  V30 COUNTS 53 57 0 0 0
M  V30 BEGIN ATOM
M  V30 1 S -0.0824 0.6597 1.2372 0
M  V30 2 C -1.7622 1.3372 1.112 0 CFG=1
M  V30 3 C 0.6941 2.2726 0.9111 0
M  V30 4 N -1.9085 1.8369 -0.2389 0
M  V30 5 C -2.9667 0.3948 0.8051 0 CFG=1
M  V30 6 C 0.2007 2.9013 -0.377 0
M  V30 7 C -1.0327 2.6531 -0.8768 0
M  V30 8 C -3.0552 1.1956 -0.54 0
M  V30 9 N -2.714 -1.0588 0.6758 0
M  V30 10 C 1.2124 3.7875 -1.0623 0
M  V30 11 C -1.428 3.2003 -2.197 0
M  V30 12 O -3.7646 1.2224 -1.5159 0
M  V30 13 C -2.5031 -1.8464 1.7922 0
M  V30 14 N 2.3065 2.968 -1.5852 0 CHG=1
M  V30 15 O -1.5859 4.3795 -2.449 0
M  V30 16 O -1.4694 2.2351 -3.1277 0
M  V30 17 O -2.4648 -1.4119 2.9336 0
M  V30 18 C -2.2722 -3.3235 1.4826 0
M  V30 19 C 3.6103 3.11 -1.2938 0
M  V30 20 C 2.1822 1.9412 -2.5281 0
M  V30 21 N -1.5037 -3.5603 0.4491 0
M  V30 22 C -2.9373 -4.3285 2.314 0
M  V30 23 N 4.2914 2.1861 -1.9871 0
M  V30 24 C 4.3613 4.0827 -0.36 0
M  V30 25 C 3.4338 1.4443 -2.7612 0
M  V30 26 O -1.405 -4.9283 0.1609 0
M  V30 27 N -4.1549 -4.0728 2.8169 0
M  V30 28 N -2.345 -5.5649 2.6142 0
M  V30 29 N 5.69 2.0001 -1.9396 0
M  V30 30 C 5.6875 3.9271 -0.2993 0
M  V30 31 C -0.4611 -5.1142 -0.8846 0
M  V30 32 S -4.6071 -5.4076 3.7058 0
M  V30 33 C -3.1536 -6.2626 3.3709 0
M  V30 34 C 6.2721 2.8415 -1.1357 0
M  V30 35 N -2.8852 -7.4893 3.8303 0
M  V30 36 H -1.9958 2.0941 1.871 0
M  V30 37 H 1.7711 2.0858 0.8646 0
M  V30 38 H 0.5151 2.9526 1.751 0
M  V30 39 H -3.8378 0.5804 1.4462 0
M  V30 40 H -2.6656 -1.5183 -0.2298 0
M  V30 41 H 0.8163 4.3638 -1.9018 0
M  V30 42 H 1.5999 4.5167 -0.3441 0
M  V30 43 H -1.9084 2.6452 -3.9048 0
M  V30 44 H 1.2086 1.6851 -2.9118 0
M  V30 45 H 3.8375 4.841 0.2036 0
M  V30 46 H 3.8388 0.6644 -3.3799 0
M  V30 47 H 6.3454 4.5341 0.3091 0
M  V30 48 H 0.5235 -4.7516 -0.5744 0
M  V30 49 H -0.7885 -4.5902 -1.7877 0
M  V30 50 H -0.3912 -6.183 -1.1022 0
M  V30 51 H 7.3692 2.7565 -1.0452 0
M  V30 52 H -2.0086 -7.9352 3.5905 0
M  V30 53 H -3.5268 -8.0089 4.4143 0
M  V30 END ATOM
M  V30 BEGIN BOND
M  V30 1 1 1 2
M  V30 2 1 1 3
M  V30 3 1 2 4
M  V30 4 1 2 5
M  V30 5 1 3 6
M  V30 6 1 4 7
M  V30 7 1 4 8
M  V30 8 1 5 9
M  V30 9 1 6 10
M  V30 10 1 7 11
M  V30 11 2 8 12
M  V30 12 1 9 13
M  V30 13 1 10 14
M  V30 14 2 11 15
M  V30 15 1 11 16
M  V30 16 2 13 17
M  V30 17 1 13 18
M  V30 18 2 14 19
M  V30 19 1 14 20
M  V30 20 2 18 21
M  V30 21 1 18 22
M  V30 22 1 19 23
M  V30 23 1 19 24
M  V30 24 2 20 25
M  V30 25 1 21 26
M  V30 26 2 22 27
M  V30 27 1 22 28
M  V30 28 1 23 29
M  V30 29 2 24 30
M  V30 30 1 26 31
M  V30 31 1 27 32
M  V30 32 2 28 33
M  V30 33 2 29 34
M  V30 34 1 33 35
M  V30 35 1 5 8
M  V30 36 2 6 7
M  V30 37 1 23 25
M  V30 38 1 30 34
M  V30 39 1 32 33
M  V30 40 1 2 36
M  V30 41 1 3 37
M  V30 42 1 3 38
M  V30 43 1 5 39
M  V30 44 1 9 40
M  V30 45 1 10 41
M  V30 46 1 10 42
M  V30 47 1 16 43
M  V30 48 1 20 44
M  V30 49 1 24 45
M  V30 50 1 25 46
M  V30 51 1 30 47
M  V30 52 1 31 48
M  V30 53 1 31 49
M  V30 54 1 31 50
M  V30 55 1 34 51
M  V30 56 1 35 52
M  V30 57 1 35 53
M  V30 END BOND
M  V30 BEGIN COLLECTION
M  V30 MDLV30/STEABS ATOMS=(2 2 5)
M  V30 END COLLECTION
M  V30 END CTAB
M  END
>  <level_0>
4871

>  <index>
4871

>  <NO.>
4872

>  <Name>
cefozopran

>  <SMILES>
CO/N=C(/C(=O)N[C@@H]1C(=O)N2C(C(=O)O)=C(C[n+]3ccn4ncccc43)CS[C@H]12)c1nsc(N)n1

>  <logBB>


>  <Class>
-1

>  <MW>
516.09

>  <nHBAcc>
11

>  <nHBDon>
3

>  <SLogP>
-1.16

>  <TopoPSA>
181.28

>  <MMFF94 Energy>
113.68

$$$$
CO/N=C(\C(=O)N[C@@H]1C(=O)N2C(C(=O)O)=C(C[N+]34CCC(C(N)=O)(CC3)CC4)CS[C@H]12)c1nsc(N)n1
Actelion Java MolfileCreator 2.0

  0  0  0  0  0  0              0 V3000
M  V30 BEGIN CTAB
M  V30 COUNTS 64 68 0 0 0
M  V30 BEGIN ATOM
M  V30 1 S 1.9661 -0.9827 0.0818 0
M  V30 2 C 1.2938 0.0311 1.4271 0 CFG=1
M  V30 3 C 1.1356 -0.0183 -1.2142 0
M  V30 4 N -0.1425 -0.0675 1.3609 0
M  V30 5 C 1.2032 -0.6077 2.8464 0 CFG=1
M  V30 6 C -0.3596 0.1659 -0.9871 0
M  V30 7 C -0.9115 0.0843 0.25 0
M  V30 8 C -0.3522 -0.5226 2.6181 0
M  V30 9 N 1.7515 -1.9762 3.0067 0
M  V30 10 C -1.1657 0.2746 -2.2681 0
M  V30 11 C -2.3896 0.1123 0.4515 0
M  V30 12 O -1.3713 -0.8159 3.1942 0
M  V30 13 C 1.8728 -2.5562 4.2549 0
M  V30 14 N -1.4784 1.6932 -2.8101 0 CHG=1
M  V30 15 O -3.2166 -0.4785 -0.216 0
M  V30 16 O -2.7241 1.011 1.3913 0
M  V30 17 O 1.5906 -2.0018 5.3061 0
M  V30 18 C 2.3993 -3.9836 4.2381 0
M  V30 19 C -2.3826 2.4769 -1.8488 0
M  V30 20 C -0.2075 2.492 -3.0933 0
M  V30 21 C -2.2507 1.5008 -4.1372 0
M  V30 22 N 1.6976 -4.9729 3.7544 0
M  V30 23 C 3.747 -4.2524 4.7364 0
M  V30 24 C -2.6922 3.8538 -2.4361 0
M  V30 25 C -0.564 3.8306 -3.7374 0
M  V30 26 C -2.6302 2.8573 -4.7101 0
M  V30 27 O 0.4334 -4.5527 3.3119 0
M  V30 28 N 4.5939 -3.2437 4.9912 0
M  V30 29 N 4.212 -5.5652 4.9084 0
M  V30 30 C -2.0864 4.0042 -3.8387 0
M  V30 31 C -0.3592 -5.7086 3.0591 0
M  V30 32 S 6.0116 -3.9258 5.5437 0
M  V30 33 C 5.4375 -5.537 5.3668 0
M  V30 34 C -2.4493 5.3456 -4.4662 0
M  V30 35 N 6.1575 -6.6249 5.6585 0
M  V30 36 O -3.0487 5.437 -5.5309 0
M  V30 37 N -2.0692 6.4662 -3.798 0
M  V30 38 H 1.6504 1.0677 1.4368 0
M  V30 39 H 1.624 0.9572 -1.2983 0
M  V30 40 H 1.3176 -0.5589 -2.1482 0
M  V30 41 H 1.5562 0.0662 3.6362 0
M  V30 42 H 1.9505 -2.56 2.1988 0
M  V30 43 H -2.1243 -0.2449 -2.2014 0
M  V30 44 H -0.6319 -0.2398 -3.0778 0
M  V30 45 H -3.6567 0.8177 1.6316 0
M  V30 46 H -1.8507 2.5839 -0.899 0
M  V30 47 H -3.2972 1.8939 -1.699 0
M  V30 48 H 0.3003 2.6563 -2.1378 0
M  V30 49 H 0.4329 1.8887 -3.7458 0
M  V30 50 H -1.5967 0.948 -4.8212 0
M  V30 51 H -3.1394 0.8961 -3.9234 0
M  V30 52 H -2.3079 4.6253 -1.7569 0
M  V30 53 H -3.779 4.0056 -2.4643 0
M  V30 54 H -0.1083 4.6408 -3.1545 0
M  V30 55 H -0.1044 3.8942 -4.7324 0
M  V30 56 H -2.2508 2.9323 -5.7377 0
M  V30 57 H -3.7232 2.9227 -4.7954 0
M  V30 58 H -0.4813 -6.2917 3.977 0
M  V30 59 H 0.1036 -6.3214 2.2797 0
M  V30 60 H -1.3438 -5.3826 2.714 0
M  V30 61 H 5.747 -7.5436 5.5418 0
M  V30 62 H 7.0976 -6.5809 6.0281 0
M  V30 63 H -1.5782 6.4962 -2.917 0
M  V30 64 H -2.3134 7.3559 -4.2226 0
M  V30 END ATOM
M  V30 BEGIN BOND
M  V30 1 1 1 2
M  V30 2 1 1 3
M  V30 3 1 2 4
M  V30 4 1 2 5
M  V30 5 1 3 6
M  V30 6 1 4 7
M  V30 7 1 4 8
M  V30 8 1 5 9
M  V30 9 1 6 10
M  V30 10 1 7 11
M  V30 11 2 8 12
M  V30 12 1 9 13
M  V30 13 1 10 14
M  V30 14 2 11 15
M  V30 15 1 11 16
M  V30 16 2 13 17
M  V30 17 1 13 18
M  V30 18 1 14 19
M  V30 19 1 14 20
M  V30 20 1 14 21
M  V30 21 2 18 22
M  V30 22 1 18 23
M  V30 23 1 19 24
M  V30 24 1 20 25
M  V30 25 1 21 26
M  V30 26 1 22 27
M  V30 27 2 23 28
M  V30 28 1 23 29
M  V30 29 1 24 30
M  V30 30 1 27 31
M  V30 31 1 28 32
M  V30 32 2 29 33
M  V30 33 1 30 34
M  V30 34 1 33 35
M  V30 35 2 34 36
M  V30 36 1 34 37
M  V30 37 1 5 8
M  V30 38 2 6 7
M  V30 39 1 25 30
M  V30 40 1 26 30
M  V30 41 1 32 33
M  V30 42 1 2 38
M  V30 43 1 3 39
M  V30 44 1 3 40
M  V30 45 1 5 41
M  V30 46 1 9 42
M  V30 47 1 10 43
M  V30 48 1 10 44
M  V30 49 1 16 45
M  V30 50 1 19 46
M  V30 51 1 19 47
M  V30 52 1 20 48
M  V30 53 1 20 49
M  V30 54 1 21 50
M  V30 55 1 21 51
M  V30 56 1 24 52
M  V30 57 1 24 53
M  V30 58 1 25 54
M  V30 59 1 25 55
M  V30 60 1 26 56
M  V30 61 1 26 57
M  V30 62 1 31 58
M  V30 63 1 31 59
M  V30 64 1 31 60
M  V30 65 1 35 61
M  V30 66 1 35 62
M  V30 67 1 37 63
M  V30 68 1 37 64
M  V30 END BOND
M  V30 BEGIN COLLECTION
M  V30 MDLV30/STEABS ATOMS=(2 2 5)
M  V30 END COLLECTION
M  V30 END CTAB
M  END
>  <level_0>
4877

>  <index>
4877

>  <NO.>
4878

>  <Name>
cefclidin

>  <SMILES>
CO/N=C(\C(=O)N[C@@H]1C(=O)N2C(C(=O)O)=C(C[N+]34CCC(C(N)=O)(CC3)CC4)CS[C@H]12)c1nsc(N)n1

>  <logBB>


>  <Class>
-1

>  <MW>
551.15

>  <nHBAcc>
11

>  <nHBDon>
4

>  <SLogP>
-1.3

>  <TopoPSA>
203.19

>  <MMFF94 Energy>
34.324

$$$$
CO/N=C(\C(=O)N[C@@H]1C(=O)N2C(C(=O)O)=C(C[n+]3ccc(N)n3CCO)CS[C@H]12)c1csc(N)n1
Actelion Java MolfileCreator 2.0

  0  0  0  0  0  0              0 V3000
M  V30 BEGIN CTAB
M  V30 COUNTS 58 61 0 0 0
M  V30 BEGIN ATOM
M  V30 1 S 0.0815 0.2447 1.714 0
M  V30 2 C -1.5998 0.9372 1.6912 0 CFG=1
M  V30 3 C 0.8661 1.8198 1.257 0
M  V30 4 N -1.845 1.4233 0.3559 0
M  V30 5 C -2.7871 -0.0529 1.4725 0 CFG=1
M  V30 6 C 0.2533 2.4568 0.0237 0
M  V30 7 C -1.0249 2.2314 -0.363 0
M  V30 8 C -2.94 0.6779 0.0848 0
M  V30 9 N -2.4517 -1.4953 1.4015 0
M  V30 10 C 1.2141 3.3661 -0.721 0
M  V30 11 C -1.5428 2.7933 -1.6411 0
M  V30 12 O -3.6148 0.5959 -0.9122 0
M  V30 13 C -3.4247 -2.4601 1.2408 0
M  V30 14 N 2.226 2.5645 -1.4132 0 CHG=1
M  V30 15 O -0.9069 2.8354 -2.6802 0
M  V30 16 O -2.7519 3.3439 -1.4833 0
M  V30 17 O -4.6251 -2.2369 1.2327 0
M  V30 18 C -2.8834 -3.8857 1.1259 0
M  V30 19 N 3.7617 2.5538 -1.0834 0
M  V30 20 C 2.0754 1.6669 -2.4864 0
M  V30 21 N -1.999 -4.2191 0.2257 0
M  V30 22 C -3.3162 -4.9185 2.0695 0
M  V30 23 C 4.3374 1.6543 -1.9751 0
M  V30 24 C 4.383 3.457 -0.1166 0
M  V30 25 C 3.3437 1.0855 -2.8512 0
M  V30 26 O -1.6781 -3.1649 -0.6417 0
M  V30 27 N -2.6759 -6.1589 2.1265 0
M  V30 28 C -4.3499 -4.7878 2.9809 0
M  V30 29 N 5.6568 1.376 -2.0082 0
M  V30 30 C 4.5935 4.8539 -0.7114 0
M  V30 31 C -0.9545 -3.7068 -1.7424 0
M  V30 32 C -3.2238 -6.9271 3.0327 0
M  V30 33 S -4.5248 -6.2243 3.8984 0
M  V30 34 O 3.3343 5.485 -0.9751 0
M  V30 35 N -2.8104 -8.1718 3.2833 0
M  V30 36 H -1.7926 1.69 2.4643 0
M  V30 37 H 1.922 1.5902 1.0847 0
M  V30 38 H 0.8128 2.5176 2.0997 0
M  V30 39 H -3.6291 0.1328 2.1499 0
M  V30 40 H -1.4863 -1.8082 1.3192 0
M  V30 41 H 1.6941 4.0146 0.0143 0
M  V30 42 H 0.7432 4.0312 -1.4481 0
M  V30 43 H -3.0856 3.5792 -2.3749 0
M  V30 44 H 1.1044 1.4978 -2.918 0
M  V30 45 H 5.3409 3.0325 0.1984 0
M  V30 46 H 3.7334 3.501 0.7625 0
M  V30 47 H 3.5169 0.3658 -3.638 0
M  V30 48 H -5.0128 -3.9502 3.1484 0
M  V30 49 H 6.3503 1.7574 -1.3759 0
M  V30 50 H 6.0797 0.7239 -2.6642 0
M  V30 51 H 5.1453 5.482 -0.0056 0
M  V30 52 H 5.1495 4.7937 -1.6521 0
M  V30 53 H -1.5707 -4.4343 -2.2794 0
M  V30 54 H -0.0301 -4.1769 -1.3931 0
M  V30 55 H -0.6996 -2.8896 -2.4223 0
M  V30 56 H 3.5458 6.3559 -1.3656 0
M  V30 57 H -3.2544 -8.7617 3.9734 0
M  V30 58 H -2.0524 -8.5666 2.7421 0
M  V30 END ATOM
M  V30 BEGIN BOND
M  V30 1 1 1 2
M  V30 2 1 1 3
M  V30 3 1 2 4
M  V30 4 1 2 5
M  V30 5 1 3 6
M  V30 6 1 4 7
M  V30 7 1 4 8
M  V30 8 1 5 9
M  V30 9 1 6 10
M  V30 10 1 7 11
M  V30 11 2 8 12
M  V30 12 1 9 13
M  V30 13 1 10 14
M  V30 14 2 11 15
M  V30 15 1 11 16
M  V30 16 2 13 17
M  V30 17 1 13 18
M  V30 18 1 14 19
M  V30 19 2 14 20
M  V30 20 2 18 21
M  V30 21 1 18 22
M  V30 22 1 19 23
M  V30 23 1 19 24
M  V30 24 1 20 25
M  V30 25 1 21 26
M  V30 26 1 22 27
M  V30 27 2 22 28
M  V30 28 1 23 29
M  V30 29 1 24 30
M  V30 30 1 26 31
M  V30 31 2 27 32
M  V30 32 1 28 33
M  V30 33 1 30 34
M  V30 34 1 32 35
M  V30 35 1 5 8
M  V30 36 2 6 7
M  V30 37 2 23 25
M  V30 38 1 32 33
M  V30 39 1 2 36
M  V30 40 1 3 37
M  V30 41 1 3 38
M  V30 42 1 5 39
M  V30 43 1 9 40
M  V30 44 1 10 41
M  V30 45 1 10 42
M  V30 46 1 16 43
M  V30 47 1 20 44
M  V30 48 1 24 45
M  V30 49 1 24 46
M  V30 50 1 25 47
M  V30 51 1 28 48
M  V30 52 1 29 49
M  V30 53 1 29 50
M  V30 54 1 30 51
M  V30 55 1 30 52
M  V30 56 1 31 53
M  V30 57 1 31 54
M  V30 58 1 31 55
M  V30 59 1 34 56
M  V30 60 1 35 57
M  V30 61 1 35 58
M  V30 END BOND
M  V30 BEGIN COLLECTION
M  V30 MDLV30/STEABS ATOMS=(2 2 5)
M  V30 END COLLECTION
M  V30 END CTAB
M  END
>  <level_0>
4878

>  <index>
4878

>  <NO.>
4879

>  <Name>
cefoselis

>  <SMILES>
CO/N=C(\C(=O)N[C@@H]1C(=O)N2C(C(=O)O)=C(C[n+]3ccc(N)n3CCO)CS[C@H]12)c1csc(N)n1

>  <logBB>


>  <Class>
-1

>  <MW>
523.12

>  <nHBAcc>
11

>  <nHBDon>
5

>  <SLogP>
-1.82

>  <TopoPSA>
202.27

>  <MMFF94 Energy>
47.171

$$$$
C[C@@H](O)[C@H]1C(=O)N2C(C(=O)O)=C(SC3Cn4cnc[n+]4C3)[C@H](C)[C@H]12
Actelion Java MolfileCreator 2.0

  0  0  0  0  0  0              0 V3000
M  V30 BEGIN CTAB
M  V30 COUNTS 43 46 0 0 0
M  V30 BEGIN ATOM
M  V30 1 S 0.2449 -1.3066 -1.3883 0
M  V30 2 C 0.1238 0.092 -0.3818 0
M  V30 3 C -0.9442 -2.5038 -0.6608 0
M  V30 4 C 0.203 0.2052 0.9576 0
M  V30 5 C 0.0231 1.4758 -1.0245 0 CFG=1
M  V30 6 C -2.0003 -2.8912 -1.7521 0
M  V30 7 C -0.195 -3.8463 -0.3167 0
M  V30 8 N 0.1241 1.5195 1.3408 0
M  V30 9 C 0.4181 -0.8575 1.9731 0
M  V30 10 C -0.1119 2.4119 0.1953 0 CFG=1
M  V30 11 C 1.2138 1.8569 -1.8959 0
M  V30 12 N -1.4297 -4.0703 -2.3361 0 CHG=1
M  V30 13 N -0.4057 -4.6366 -1.502 0
M  V30 14 C 1.1511 2.2315 1.8828 0
M  V30 15 O 0.6901 -2.0247 1.7494 0
M  V30 16 O 0.1841 -0.4191 3.2204 0
M  V30 17 C 0.9828 3.3428 0.8314 0 CFG=2
M  V30 18 C -1.4823 -4.8698 -3.4537 0
M  V30 19 C 0.0879 -5.7267 -2.1808 0
M  V30 20 O 1.9421 1.9852 2.7617 0
M  V30 21 C 0.5699 4.7167 1.3436 0 CFG=2
M  V30 22 N -0.5643 -5.9131 -3.3953 0
M  V30 23 O 1.7314 5.4027 1.8057 0
M  V30 24 C -0.4695 4.6905 2.4548 0
M  V30 25 H -1.4405 -2.0741 0.2128 0
M  V30 26 H -0.8965 1.5307 -1.6212 0
M  V30 27 H -2.1824 -2.1195 -2.504 0
M  V30 28 H -2.9457 -3.1774 -1.2803 0
M  V30 29 H -0.688 -4.3557 0.5169 0
M  V30 30 H 0.873 -3.7372 -0.1156 0
M  V30 31 H -1.1229 2.8403 0.2355 0
M  V30 32 H 1.1543 2.9096 -2.1927 0
M  V30 33 H 1.2408 1.2563 -2.8111 0
M  V30 34 H 2.1654 1.7077 -1.3739 0
M  V30 35 H 0.4469 -1.1373 3.8313 0
M  V30 36 H 1.8763 3.4365 0.2004 0
M  V30 37 H -2.1807 -4.64 -4.2418 0
M  V30 38 H 0.8948 -6.3109 -1.7588 0
M  V30 39 H 0.1773 5.3034 0.5059 0
M  V30 40 H 2.0423 4.9808 2.6288 0
M  V30 41 H -1.3912 4.1928 2.1413 0
M  V30 42 H -0.0902 4.1849 3.3494 0
M  V30 43 H -0.7173 5.7126 2.762 0
M  V30 END ATOM
M  V30 BEGIN BOND
M  V30 1 1 1 2
M  V30 2 1 1 3
M  V30 3 2 2 4
M  V30 4 1 2 5
M  V30 5 1 3 6
M  V30 6 1 3 7
M  V30 7 1 4 8
M  V30 8 1 4 9
M  V30 9 1 5 10
M  V30 10 1 5 11
M  V30 11 1 6 12
M  V30 12 1 7 13
M  V30 13 1 8 14
M  V30 14 2 9 15
M  V30 15 1 9 16
M  V30 16 1 10 17
M  V30 17 2 12 18
M  V30 18 1 13 19
M  V30 19 2 14 20
M  V30 20 1 17 21
M  V30 21 1 18 22
M  V30 22 1 21 23
M  V30 23 1 21 24
M  V30 24 1 8 10
M  V30 25 1 12 13
M  V30 26 1 14 17
M  V30 27 2 19 22
M  V30 28 1 3 25
M  V30 29 1 5 26
M  V30 30 1 6 27
M  V30 31 1 6 28
M  V30 32 1 7 29
M  V30 33 1 7 30
M  V30 34 1 10 31
M  V30 35 1 11 32
M  V30 36 1 11 33
M  V30 37 1 11 34
M  V30 38 1 16 35
M  V30 39 1 17 36
M  V30 40 1 18 37
M  V30 41 1 19 38
M  V30 42 1 21 39
M  V30 43 1 23 40
M  V30 44 1 24 41
M  V30 45 1 24 42
M  V30 46 1 24 43
M  V30 END BOND
M  V30 BEGIN COLLECTION
M  V30 MDLV30/STEABS ATOMS=(4 5 10 17 21)
M  V30 END COLLECTION
M  V30 END CTAB
M  END
>  <level_0>
4921

>  <index>
4921

>  <NO.>
4922

>  <Name>
biapenem

>  <SMILES>
C[C@@H](O)[C@H]1C(=O)N2C(C(=O)O)=C(SC3Cn4cnc[n+]4C3)[C@H](C)[C@H]12

>  <logBB>


>  <Class>
-1

>  <MW>
351.11

>  <nHBAcc>
5

>  <nHBDon>
2

>  <SLogP>
-0.56

>  <TopoPSA>
99.54

>  <MMFF94 Energy>
113.56

$$$$
NC(=O)c1cc[n+](CC2=C(C(=O)O)N3C(=O)[C@@H](NC(=O)[C@@H](c4ccccc4)S(=O)(=O)O)[C@H]3SC2)cc1
Actelion Java MolfileCreator 2.0

  0  0  0  0  0  0              0 V3000
M  V30 BEGIN CTAB
M  V30 COUNTS 57 60 0 0 0
M  V30 BEGIN ATOM
M  V30 1 S -0.8206 -1.806 -0.5743 0
M  V30 2 O 0.0323 -0.6594 -0.3047 0
M  V30 3 O -1.7659 -1.7833 -1.6649 0
M  V30 4 O 0.1695 -3.0486 -0.8795 0
M  V30 5 C -1.5451 -2.3946 0.9735 0 CFG=2
M  V30 6 C -2.2009 -3.7458 0.7617 0
M  V30 7 C -2.4217 -1.2692 1.482 0
M  V30 8 C -3.3839 -3.9054 0.0227 0
M  V30 9 C -1.5941 -4.8954 1.3003 0
M  V30 10 O -3.6272 -1.1741 1.2832 0
M  V30 11 N -1.7409 -0.296 2.1946 0
M  V30 12 C -3.9405 -5.1709 -0.1725 0
M  V30 13 C -2.1527 -6.1597 1.103 0
M  V30 14 C -2.3241 1.0689 2.4274 0 CFG=2
M  V30 15 C -3.3252 -6.2969 0.3661 0
M  V30 16 C -2.7562 1.8328 1.1027 0
M  V30 17 C -1.2583 2.2222 2.529 0 CFG=2
M  V30 18 O -3.5814 1.734 0.2284 0
M  V30 19 N -1.6347 2.5901 1.1842 0
M  V30 20 S 0.4851 1.6822 2.5644 0
M  V30 21 C -0.8708 3.2059 0.242 0
M  V30 22 C 1.1097 3.1853 1.777 0
M  V30 23 C 0.4462 3.448 0.4449 0
M  V30 24 C -1.5019 3.4852 -1.0809 0
M  V30 25 C 1.379 3.9799 -0.6229 0
M  V30 26 O -1.0081 3.2091 -2.1595 0
M  V30 27 O -2.6304 4.1911 -0.9373 0
M  V30 28 N 2.3384 2.9289 -1.0822 0 CHG=1
M  V30 29 C 1.8788 1.78 -1.6389 0
M  V30 30 C 3.6717 3.1497 -0.9861 0
M  V30 31 C 2.76 0.8019 -2.0783 0
M  V30 32 C 4.593 2.1985 -1.4149 0
M  V30 33 C 4.1333 1.0034 -1.9593 0
M  V30 34 C 5.0377 -0.0605 -2.4648 0
M  V30 35 O 4.615 -0.9204 -3.225 0
M  V30 36 N 6.3363 -0.0641 -2.049 0
M  V30 37 H -0.2776 -3.6602 -1.5098 0
M  V30 38 H -0.6999 -2.5049 1.6656 0
M  V30 39 H -3.898 -3.0471 -0.4121 0
M  V30 40 H -0.6756 -4.825 1.8808 0
M  V30 41 H -0.7511 -0.4223 2.3963 0
M  V30 42 H -4.8613 -5.2749 -0.7426 0
M  V30 43 H -1.6758 -7.0402 1.5277 0
M  V30 44 H -3.0755 1.0681 3.2219 0
M  V30 45 H -3.7644 -7.2804 0.2162 0
M  V30 46 H -1.5059 2.9974 3.2632 0
M  V30 47 H 2.1877 3.0433 1.6555 0
M  V30 48 H 0.9709 4.0468 2.4395 0
M  V30 49 H 0.8988 4.3695 -1.5228 0
M  V30 50 H 1.9559 4.8153 -0.2076 0
M  V30 51 H -3.0709 4.2053 -1.8138 0
M  V30 52 H 0.8059 1.6371 -1.7285 0
M  V30 53 H 3.9991 4.0977 -0.5675 0
M  V30 54 H 2.3661 -0.1171 -2.5122 0
M  V30 55 H 5.6536 2.4197 -1.3427 0
M  V30 56 H 6.754 0.5528 -1.3707 0
M  V30 57 H 6.9226 -0.8072 -2.4159 0
M  V30 END ATOM
M  V30 BEGIN BOND
M  V30 1 2 1 2
M  V30 2 2 1 3
M  V30 3 1 1 4
M  V30 4 1 1 5
M  V30 5 1 5 6
M  V30 6 1 5 7
M  V30 7 2 6 8
M  V30 8 1 6 9
M  V30 9 2 7 10
M  V30 10 1 7 11
M  V30 11 1 8 12
M  V30 12 2 9 13
M  V30 13 1 11 14
M  V30 14 2 12 15
M  V30 15 1 14 16
M  V30 16 1 14 17
M  V30 17 2 16 18
M  V30 18 1 16 19
M  V30 19 1 17 20
M  V30 20 1 19 21
M  V30 21 1 20 22
M  V30 22 2 21 23
M  V30 23 1 21 24
M  V30 24 1 23 25
M  V30 25 2 24 26
M  V30 26 1 24 27
M  V30 27 1 25 28
M  V30 28 2 28 29
M  V30 29 1 28 30
M  V30 30 1 29 31
M  V30 31 2 30 32
M  V30 32 2 31 33
M  V30 33 1 33 34
M  V30 34 2 34 35
M  V30 35 1 34 36
M  V30 36 1 13 15
M  V30 37 1 17 19
M  V30 38 1 22 23
M  V30 39 1 32 33
M  V30 40 1 4 37
M  V30 41 1 5 38
M  V30 42 1 8 39
M  V30 43 1 9 40
M  V30 44 1 11 41
M  V30 45 1 12 42
M  V30 46 1 13 43
M  V30 47 1 14 44
M  V30 48 1 15 45
M  V30 49 1 17 46
M  V30 50 1 22 47
M  V30 51 1 22 48
M  V30 52 1 25 49
M  V30 53 1 25 50
M  V30 54 1 27 51
M  V30 55 1 29 52
M  V30 56 1 30 53
M  V30 57 1 31 54
M  V30 58 1 32 55
M  V30 59 1 36 56
M  V30 60 1 36 57
M  V30 END BOND
M  V30 BEGIN COLLECTION
M  V30 MDLV30/STEABS ATOMS=(3 5 14 17)
M  V30 END COLLECTION
M  V30 END CTAB
M  END
>  <level_0>
4980

>  <index>
4980

>  <NO.>
4981

>  <Name>
cefsulodin

>  <SMILES>
NC(=O)c1cc[n+](CC2=C(C(=O)O)N3C(=O)[C@@H](NC(=O)[C@@H](c4ccccc4)S(=O)(=O)O)[C@H]3SC2)cc1

>  <logBB>


>  <Class>
-1

>  <MW>
533.08

>  <nHBAcc>
7

>  <nHBDon>
4

>  <SLogP>
-0.56

>  <TopoPSA>
188.05

>  <MMFF94 Energy>
-2.1298

$$$$
Nc1ncc(/C(=N\OC2CCNC2=O)C(=O)N[C@@H]2C(=O)N3C(C(=O)O)=C(C[n+]4ccccc4)CS[C@H]23)s1
Actelion Java MolfileCreator 2.0

  0  0  0  0  0  0              0 V3000
M  V30 BEGIN CTAB
M  V30 COUNTS 59 63 0 0 0
M  V30 BEGIN ATOM
M  V30 1 S 1.721 1.557 0.2457 0
M  V30 2 C 2.7271 0.7035 -1.006 0 CFG=1
M  V30 3 C 3.0585 1.5631 1.4761 0
M  V30 4 N 3.1113 -0.5697 -0.4494 0
M  V30 5 C 1.9765 -0.0888 -2.1214 0 CFG=1
M  V30 6 C 3.6457 0.1858 1.7281 0
M  V30 7 C 3.648 -0.7841 0.7803 0
M  V30 8 C 2.5692 -1.3595 -1.4043 0
M  V30 9 N 0.4954 0.0014 -2.1328 0
M  V30 10 C 4.2469 0.0136 3.1109 0
M  V30 11 C 4.177 -2.1482 1.0701 0
M  V30 12 O 2.5045 -2.5613 -1.4934 0
M  V30 13 C -0.2535 -0.6583 -3.0858 0
M  V30 14 N 3.2084 0.0316 4.1787 0 CHG=1
M  V30 15 O 3.9874 -2.76 2.1063 0
M  V30 16 O 4.9826 -2.5763 0.0906 0
M  V30 17 O 0.2098 -1.2832 -4.0249 0
M  V30 18 C -1.764 -0.5275 -2.8799 0
M  V30 19 C 3.1945 1.0379 5.0874 0
M  V30 20 C 2.3148 -0.9842 4.2743 0
M  V30 21 N -2.2074 0.6998 -2.8405 0
M  V30 22 C -2.5091 -1.7572 -2.7214 0
M  V30 23 C 2.2492 1.066 6.1062 0
M  V30 24 C 1.3529 -0.9935 5.2781 0
M  V30 25 O -3.5807 0.7649 -2.5659 0
M  V30 26 S -1.774 -3.1663 -2.0594 0
M  V30 27 C -3.8283 -2.0494 -3.0115 0
M  V30 28 C 1.3175 0.0424 6.2002 0
M  V30 29 C -4.0855 2.028 -2.9569 0
M  V30 30 C -3.243 -4.0285 -2.2371 0
M  V30 31 N -4.2392 -3.3389 -2.7269 0
M  V30 32 C -5.6096 2.0408 -2.9801 0
M  V30 33 C -3.7818 3.1154 -1.9264 0
M  V30 34 N -3.3461 -5.3141 -1.8907 0
M  V30 35 O -6.3513 1.1595 -3.3778 0
M  V30 36 N -6.0283 3.2577 -2.4715 0
M  V30 37 C -4.9298 4.0921 -2.0938 0
M  V30 38 H 3.5794 1.2839 -1.3775 0
M  V30 39 H 2.6181 1.9681 2.3914 0
M  V30 40 H 3.8504 2.2512 1.1611 0
M  V30 41 H 2.3982 0.0758 -3.12 0
M  V30 42 H -0.007 0.5571 -1.4455 0
M  V30 43 H 4.826 -0.9005 3.2596 0
M  V30 44 H 4.9461 0.8376 3.299 0
M  V30 45 H 5.1912 -3.517 0.2749 0
M  V30 46 H 3.9414 1.8211 4.9935 0
M  V30 47 H 2.369 -1.788 3.5479 0
M  V30 48 H 2.241 1.88 6.8284 0
M  V30 49 H 0.6372 -1.8109 5.3424 0
M  V30 50 H -4.5505 -1.3646 -3.4431 0
M  V30 51 H 0.5711 0.0466 6.9938 0
M  V30 52 H -3.736 2.3032 -3.9601 0
M  V30 53 H -2.8052 3.5831 -2.0829 0
M  V30 54 H -3.7805 2.6901 -0.9145 0
M  V30 55 H -4.2253 -5.7951 -2.0348 0
M  V30 56 H -2.5603 -5.8564 -1.5623 0
M  V30 57 H -7.0126 3.4975 -2.4311 0
M  V30 58 H -5.1662 4.631 -1.173 0
M  V30 59 H -4.7468 4.8053 -2.9034 0
M  V30 END ATOM
M  V30 BEGIN BOND
M  V30 1 1 1 2
M  V30 2 1 1 3
M  V30 3 1 2 4
M  V30 4 1 2 5
M  V30 5 1 3 6
M  V30 6 1 4 7
M  V30 7 1 4 8
M  V30 8 1 5 9
M  V30 9 1 6 10
M  V30 10 1 7 11
M  V30 11 2 8 12
M  V30 12 1 9 13
M  V30 13 1 10 14
M  V30 14 2 11 15
M  V30 15 1 11 16
M  V30 16 2 13 17
M  V30 17 1 13 18
M  V30 18 2 14 19
M  V30 19 1 14 20
M  V30 20 2 18 21
M  V30 21 1 18 22
M  V30 22 1 19 23
M  V30 23 2 20 24
M  V30 24 1 21 25
M  V30 25 1 22 26
M  V30 26 2 22 27
M  V30 27 2 23 28
M  V30 28 1 25 29
M  V30 29 1 26 30
M  V30 30 1 27 31
M  V30 31 1 29 32
M  V30 32 1 29 33
M  V30 33 1 30 34
M  V30 34 2 32 35
M  V30 35 1 32 36
M  V30 36 1 33 37
M  V30 37 1 5 8
M  V30 38 2 6 7
M  V30 39 1 24 28
M  V30 40 2 30 31
M  V30 41 1 36 37
M  V30 42 1 2 38
M  V30 43 1 3 39
M  V30 44 1 3 40
M  V30 45 1 5 41
M  V30 46 1 9 42
M  V30 47 1 10 43
M  V30 48 1 10 44
M  V30 49 1 16 45
M  V30 50 1 19 46
M  V30 51 1 20 47
M  V30 52 1 23 48
M  V30 53 1 24 49
M  V30 54 1 27 50
M  V30 55 1 28 51
M  V30 56 1 29 52
M  V30 57 1 33 53
M  V30 58 1 33 54
M  V30 59 1 34 55
M  V30 60 1 34 56
M  V30 61 1 36 57
M  V30 62 1 37 58
M  V30 63 1 37 59
M  V30 END BOND
M  V30 BEGIN COLLECTION
M  V30 MDLV30/STEABS ATOMS=(2 2 5)
M  V30 END COLLECTION
M  V30 END CTAB
M  END
>  <level_0>
4991

>  <index>
4991

>  <NO.>
4992

>  <Name>
cefempidone

>  <SMILES>
Nc1ncc(/C(=N\OC2CCNC2=O)C(=O)N[C@@H]2C(=O)N3C(C(=O)O)=C(C[n+]4ccccc4)CS[C@H]23)s1

>  <logBB>


>  <Class>
-1

>  <MW>
544.11

>  <nHBAcc>
10

>  <nHBDon>
4

>  <SLogP>
-0.94

>  <TopoPSA>
180.19

>  <MMFF94 Energy>
60.541

$$$$
O=C(O)C1=C(C[n+]2ccc(CCS(=O)(=O)O)cc2)CS[C@@H]2[C@H](NC(=O)[C@H](NC(=O)c3nc[nH]c3C(=O)O)c3ccccc3)C(=O)N12
Actelion Java MolfileCreator 2.0

  0  0  0  0  0  0              0 V3000
M  V30 BEGIN CTAB
M  V30 COUNTS 73 77 0 0 0
M  V30 BEGIN ATOM
M  V30 1 S 9.5746 -4.4105 -0.9788 0
M  V30 2 O 9.1917 -5.7984 -1.0798 0
M  V30 3 O 10.702 -3.9661 -0.1959 0
M  V30 4 O 9.774 -3.8909 -2.4937 0
M  V30 5 C 8.1389 -3.4385 -0.5579 0
M  V30 6 C 8.4497 -1.9487 -0.5595 0
M  V30 7 C 7.2557 -1.1233 -0.1381 0
M  V30 8 C 7.0333 -0.8299 1.2067 0
M  V30 9 C 6.3486 -0.6414 -1.0803 0
M  V30 10 C 5.9294 -0.0687 1.577 0
M  V30 11 C 5.2577 0.1168 -0.6662 0
M  V30 12 N 5.0502 0.3767 0.6466 0 CHG=1
M  V30 13 C 3.8985 1.2196 1.0722 0
M  V30 14 C 2.5556 0.6816 0.6126 0
M  V30 15 C 2.0552 -0.5271 0.9683 0
M  V30 16 C 1.7617 1.6826 -0.2102 0
M  V30 17 N 0.8418 -0.948 0.5215 0
M  V30 18 C 2.7906 -1.4084 1.9195 0
M  V30 19 S -0.0302 1.4479 -0.1021 0
M  V30 20 C -0.1084 -1.7844 0.9954 0
M  V30 21 C 0.0438 -0.3191 -0.5089 0 CFG=2
M  V30 22 O 3.4606 -1.0206 2.8603 0
M  V30 23 O 2.7429 -2.6919 1.5371 0
M  V30 24 O -0.1257 -2.5369 1.9398 0
M  V30 25 C -1.1254 -1.2527 -0.0607 0 CFG=2
M  V30 26 N -2.3622 -0.6297 0.4731 0
M  V30 27 C -3.2642 -0.0163 -0.3773 0
M  V30 28 O -3.0412 0.0717 -1.5858 0
M  V30 29 C -4.5199 0.5642 0.3129 0 CFG=2
M  V30 30 N -5.5932 0.678 -0.6456 0
M  V30 31 C -4.2381 1.9052 0.9668 0
M  V30 32 C -6.9082 0.4753 -0.3098 0
M  V30 33 C -3.6067 2.9455 0.2659 0
M  V30 34 C -4.6527 2.139 2.2877 0
M  V30 35 O -7.2608 0.1383 0.8136 0
M  V30 36 C -7.8097 0.697 -1.443 0
M  V30 37 C -3.3673 4.175 0.8822 0
M  V30 38 C -4.413 3.3696 2.9012 0
M  V30 39 N -7.309 1.0626 -2.6952 0
M  V30 40 C -9.193 0.6007 -1.494 0
M  V30 41 C -3.7663 4.3851 2.2004 0
M  V30 42 C -8.3558 1.1864 -3.4739 0
M  V30 43 N -9.5065 0.9208 -2.7985 0
M  V30 44 C -10.17 0.2639 -0.5064 0
M  V30 45 O -10.0354 -0.0462 0.6631 0
M  V30 46 O -11.4114 0.3212 -1.0434 0
M  V30 47 H 10.0427 -4.6606 -3.0446 0
M  V30 48 H 7.8193 -3.7741 0.4348 0
M  V30 49 H 7.3468 -3.692 -1.2704 0
M  V30 50 H 8.7799 -1.6241 -1.554 0
M  V30 51 H 9.2882 -1.7275 0.1127 0
M  V30 52 H 7.7199 -1.1834 1.9752 0
M  V30 53 H 6.4918 -0.8419 -2.1412 0
M  V30 54 H 5.7385 0.1779 2.6189 0
M  V30 55 H 4.5485 0.521 -1.3824 0
M  V30 56 H 4.1075 2.2038 0.6333 0
M  V30 57 H 3.9157 1.3558 2.1585 0
M  V30 58 H 2.08 1.6358 -1.2571 0
M  V30 59 H 1.951 2.6994 0.1495 0
M  V30 60 H 0.4064 -0.5348 -1.5205 0
M  V30 61 H 3.0801 -3.2276 2.2865 0
M  V30 62 H -1.3733 -2.0256 -0.8 0
M  V30 63 H -2.5666 -0.649 1.4681 0
M  V30 64 H -4.8177 -0.1615 1.0811 0
M  V30 65 H -5.3922 0.933 -1.6097 0
M  V30 66 H -3.3052 2.8098 -0.7712 0
M  V30 67 H -5.1903 1.3702 2.8415 0
M  V30 68 H -2.8827 4.9743 0.3277 0
M  V30 69 H -4.7488 3.5412 3.9211 0
M  V30 70 H -3.5925 5.347 2.6757 0
M  V30 71 H -8.3432 1.4624 -4.5204 0
M  V30 72 H -10.4475 0.9471 -3.1699 0
M  V30 73 H -11.9749 0.0756 -0.2776 0
M  V30 END ATOM
M  V30 BEGIN BOND
M  V30 1 2 1 2
M  V30 2 2 1 3
M  V30 3 1 1 4
M  V30 4 1 1 5
M  V30 5 1 5 6
M  V30 6 1 6 7
M  V30 7 2 7 8
M  V30 8 1 7 9
M  V30 9 1 8 10
M  V30 10 2 9 11
M  V30 11 2 10 12
M  V30 12 1 12 13
M  V30 13 1 13 14
M  V30 14 2 14 15
M  V30 15 1 14 16
M  V30 16 1 15 17
M  V30 17 1 15 18
M  V30 18 1 16 19
M  V30 19 1 17 20
M  V30 20 1 17 21
M  V30 21 2 18 22
M  V30 22 1 18 23
M  V30 23 2 20 24
M  V30 24 1 20 25
M  V30 25 1 25 26
M  V30 26 1 26 27
M  V30 27 2 27 28
M  V30 28 1 27 29
M  V30 29 1 29 30
M  V30 30 1 29 31
M  V30 31 1 30 32
M  V30 32 2 31 33
M  V30 33 1 31 34
M  V30 34 2 32 35
M  V30 35 1 32 36
M  V30 36 1 33 37
M  V30 37 2 34 38
M  V30 38 1 36 39
M  V30 39 2 36 40
M  V30 40 2 37 41
M  V30 41 2 39 42
M  V30 42 1 40 43
M  V30 43 1 40 44
M  V30 44 2 44 45
M  V30 45 1 44 46
M  V30 46 1 11 12
M  V30 47 1 19 21
M  V30 48 1 21 25
M  V30 49 1 38 41
M  V30 50 1 42 43
M  V30 51 1 4 47
M  V30 52 1 5 48
M  V30 53 1 5 49
M  V30 54 1 6 50
M  V30 55 1 6 51
M  V30 56 1 8 52
M  V30 57 1 9 53
M  V30 58 1 10 54
M  V30 59 1 11 55
M  V30 60 1 13 56
M  V30 61 1 13 57
M  V30 62 1 16 58
M  V30 63 1 16 59
M  V30 64 1 21 60
M  V30 65 1 23 61
M  V30 66 1 25 62
M  V30 67 1 26 63
M  V30 68 1 29 64
M  V30 69 1 30 65
M  V30 70 1 33 66
M  V30 71 1 34 67
M  V30 72 1 37 68
M  V30 73 1 38 69
M  V30 74 1 41 70
M  V30 75 1 42 71
M  V30 76 1 43 72
M  V30 77 1 46 73
M  V30 END BOND
M  V30 BEGIN COLLECTION
M  V30 MDLV30/STEABS ATOMS=(3 21 25 29)
M  V30 END COLLECTION
M  V30 END CTAB
M  END
>  <level_0>
4995

>  <index>
4995

>  <NO.>
4996

>  <Name>
84880-03-5

>  <SMILES>
O=C(O)C1=C(C[n+]2ccc(CCS(=O)(=O)O)cc2)CS[C@@H]2[C@H](NC(=O)[C@H](NC(=O)c3nc[nH]c3C(=O)O)c3ccccc3)C(=O)N12

>  <logBB>


>  <Class>
-1

>  <MW>
671.12

>  <nHBAcc>
9

>  <nHBDon>
6

>  <SLogP>
-0.26

>  <TopoPSA>
240.04

>  <MMFF94 Energy>
-20.135

$$$$
OCCC1CCC(CC/C=C2\c3ccccc3Sc3ccc(Cl)cc32)CC1
Actelion Java MolfileCreator 2.0

  0  0  0  0  0  0              0 V3000
M  V30 BEGIN CTAB
M  V30 COUNTS 54 57 0 0 0
M  V30 BEGIN ATOM
M  V30 1 Cl 5.3745 1.9518 5.3745 0
M  V30 2 C 3.7202 1.4834 5.3037 0
M  V30 3 C 3.2529 0.7598 4.2075 0
M  V30 4 C 2.8593 1.8327 6.3399 0
M  V30 5 C 1.9021 0.3802 4.1336 0
M  V30 6 C 1.5209 1.4386 6.2894 0
M  V30 7 C 1.0386 0.6978 5.201 0
M  V30 8 C 1.3536 -0.3571 2.9608 0
M  V30 9 S -0.676 0.1766 5.2422 0
M  V30 10 C 0.3451 -1.4267 3.1721 0
M  V30 11 C 1.6664 0.1183 1.7319 0
M  V30 12 C -0.6446 -1.2489 4.1563 0
M  V30 13 C 0.3871 -2.6368 2.4615 0
M  V30 14 C 1.1106 -0.2746 0.3849 0
M  V30 15 C -1.628 -2.2312 4.3401 0
M  V30 16 C -0.5867 -3.6168 2.6623 0
M  V30 17 C 0.6612 0.9617 -0.4066 0
M  V30 18 C -1.6025 -3.4076 3.5906 0
M  V30 19 C 0.2005 0.64 -1.843 0
M  V30 20 C -1.0516 -0.2517 -1.8734 0
M  V30 21 C -0.0554 1.9513 -2.6068 0
M  V30 22 C -1.5519 -0.4903 -3.2991 0
M  V30 23 C -0.5512 1.7001 -4.0301 0
M  V30 24 C -1.8147 0.8303 -4.0339 0
M  V30 25 C -2.3823 0.6176 -5.4479 0
M  V30 26 C -1.4744 -0.118 -6.4267 0
M  V30 27 O -2.1508 -0.2288 -7.6741 0
M  V30 28 H 3.9434 0.4896 3.4127 0
M  V30 29 H 3.2225 2.4001 7.1929 0
M  V30 30 H 0.8603 1.7012 7.1133 0
M  V30 31 H 2.3749 0.9443 1.66 0
M  V30 32 H 1.1814 -2.8248 1.743 0
M  V30 33 H 0.26 -0.9503 0.4846 0
M  V30 34 H 1.8935 -0.8026 -0.1713 0
M  V30 35 H -2.4082 -2.0965 5.0861 0
M  V30 36 H -0.55 -4.5431 2.0946 0
M  V30 37 H 1.4953 1.6743 -0.4592 0
M  V30 38 H -0.1476 1.4689 0.1361 0
M  V30 39 H -2.3634 -4.1679 3.7472 0
M  V30 40 H 1.0144 0.1062 -2.3524 0
M  V30 41 H -1.8519 0.2098 -1.281 0
M  V30 42 H -0.8396 -1.2254 -1.4188 0
M  V30 43 H -0.7956 2.5575 -2.0687 0
M  V30 44 H 0.8668 2.5432 -2.6498 0
M  V30 45 H -0.8042 -1.0858 -3.8359 0
M  V30 46 H -2.4709 -1.0873 -3.2628 0
M  V30 47 H -0.757 2.6614 -4.5155 0
M  V30 48 H 0.2505 1.2172 -4.6008 0
M  V30 49 H -2.5884 1.3714 -3.4701 0
M  V30 50 H -3.334 0.0742 -5.3753 0
M  V30 51 H -2.6464 1.5924 -5.8794 0
M  V30 52 H -0.5421 0.4272 -6.5958 0
M  V30 53 H -1.2432 -1.1279 -6.0776 0
M  V30 54 H -1.5535 -0.6972 -8.2817 0
M  V30 END ATOM
M  V30 BEGIN BOND
M  V30 1 1 1 2
M  V30 2 2 2 3
M  V30 3 1 2 4
M  V30 4 1 3 5
M  V30 5 2 4 6
M  V30 6 2 5 7
M  V30 7 1 5 8
M  V30 8 1 7 9
M  V30 9 1 8 10
M  V30 10 2 8 11
M  V30 11 1 9 12
M  V30 12 1 10 13
M  V30 13 1 11 14
M  V30 14 1 12 15
M  V30 15 2 13 16
M  V30 16 1 14 17
M  V30 17 2 15 18
M  V30 18 1 17 19
M  V30 19 1 19 20
M  V30 20 1 19 21
M  V30 21 1 20 22
M  V30 22 1 21 23
M  V30 23 1 22 24
M  V30 24 1 24 25
M  V30 25 1 25 26
M  V30 26 1 26 27
M  V30 27 1 6 7
M  V30 28 2 10 12
M  V30 29 1 16 18
M  V30 30 1 23 24
M  V30 31 1 3 28
M  V30 32 1 4 29
M  V30 33 1 6 30
M  V30 34 1 11 31
M  V30 35 1 13 32
M  V30 36 1 14 33
M  V30 37 1 14 34
M  V30 38 1 15 35
M  V30 39 1 16 36
M  V30 40 1 17 37
M  V30 41 1 17 38
M  V30 42 1 18 39
M  V30 43 1 19 40
M  V30 44 1 20 41
M  V30 45 1 20 42
M  V30 46 1 21 43
M  V30 47 1 21 44
M  V30 48 1 22 45
M  V30 49 1 22 46
M  V30 50 1 23 47
M  V30 51 1 23 48
M  V30 52 1 24 49
M  V30 53 1 25 50
M  V30 54 1 25 51
M  V30 55 1 26 52
M  V30 56 1 26 53
M  V30 57 1 27 54
M  V30 END BOND
M  V30 END CTAB
M  END
>  <level_0>
5004

>  <index>
5004

>  <NO.>
5005

>  <Name>
clopenthixol

>  <SMILES>
OCCC1CCC(CC/C=C2\c3ccccc3Sc3ccc(Cl)cc32)CC1

>  <logBB>


>  <Class>
1

>  <MW>
398.15

>  <nHBAcc>
2

>  <nHBDon>
1

>  <SLogP>
7.21

>  <TopoPSA>
20.23

>  <MMFF94 Energy>
70.753

$$$$
COc1cc([C@H]2c3cc4c(cc3[C@H](O[C@H]3O[C@H]5CO[C@H](c6cccs6)O[C@@H]5[C@@H](O)[C@@H]3O)[C@H]3COC(=O)[C@H]23)OCO4)cc(O)c1O
Actelion Java MolfileCreator 2.0

  0  0  0  0  0  0              0 V3000
M  V30 BEGIN CTAB
M  V30 COUNTS 75 82 0 0 0
M  V30 BEGIN ATOM
M  V30 1 S 6.4081 -4.6798 0.8198 0
M  V30 2 C 5.7358 -3.9039 -0.5604 0
M  V30 3 C 7.7126 -5.3111 -0.0851 0
M  V30 4 C 6.5086 -4.1358 -1.6848 0
M  V30 5 C 4.4714 -3.1016 -0.462 0 CFG=2
M  V30 6 C 7.6479 -4.9463 -1.4101 0
M  V30 7 O 4.7029 -2.064 0.4953 0
M  V30 8 O 3.43 -3.9932 -0.0697 0
M  V30 9 C 3.5119 -1.3102 0.7083 0 CFG=2
M  V30 10 C 2.1972 -3.3074 0.1318 0
M  V30 11 C 3.7569 -0.2441 1.7734 0 CFG=1
M  V30 12 C 2.3754 -2.2144 1.1792 0 CFG=2
M  V30 13 O 4.7463 0.6933 1.3222 0
M  V30 14 C 2.4583 0.5176 2.0714 0 CFG=2
M  V30 15 O 1.1806 -1.4579 1.353 0
M  V30 16 O 2.6902 1.4335 3.1478 0
M  V30 17 C 1.317 -0.4805 2.3945 0 CFG=2
M  V30 18 O 0.0608 0.1542 2.6708 0
M  V30 19 C -0.5869 0.7732 1.5654 0 CFG=1
M  V30 20 C -1.9008 0.0628 1.2088 0
M  V30 21 C -0.9666 2.1853 1.98 0 CFG=2
M  V30 22 C -3.0176 0.7988 0.6887 0
M  V30 23 C -2.0192 -1.3297 1.3823 0
M  V30 24 C -1.6001 2.9104 0.813 0 CFG=1
M  V30 25 C 0.1178 3.1535 2.3689 0
M  V30 26 C -4.2257 0.1268 0.4001 0
M  V30 27 C -2.9705 2.3243 0.4768 0 CFG=1
M  V30 28 C -3.2124 -1.9426 1.0654 0
M  V30 29 C -1.5842 4.3099 1.3631 0
M  V30 30 O -0.521 4.4342 2.224 0
M  V30 31 C -4.286 -1.2346 0.5918 0
M  V30 32 C -3.3562 2.7432 -0.9454 0
M  V30 33 O -3.4773 -3.2715 1.1828 0
M  V30 34 O -2.3518 5.2153 1.0868 0
M  V30 35 O -5.366 -2.0241 0.3515 0
M  V30 36 C -2.8764 2.0444 -2.076 0
M  V30 37 C -4.1663 3.8735 -1.1387 0
M  V30 38 C -4.8492 -3.314 0.7385 0
M  V30 39 C -3.2182 2.4411 -3.3744 0
M  V30 40 C -4.4808 4.2833 -2.4287 0
M  V30 41 O -2.798 1.8135 -4.5162 0
M  V30 42 C -4.0158 3.5744 -3.5355 0
M  V30 43 O -5.2468 5.3948 -2.6594 0
M  V30 44 C -2.3567 0.4699 -4.381 0
M  V30 45 O -4.3612 4.0162 -4.7869 0
M  V30 46 H 8.4631 -5.921 0.3986 0
M  V30 47 H 6.2672 -3.7431 -2.6653 0
M  V30 48 H 4.2326 -2.658 -1.4378 0
M  V30 49 H 8.3817 -5.2485 -2.1473 0
M  V30 50 H 3.2518 -0.8042 -0.2323 0
M  V30 51 H 1.8347 -2.9007 -0.8204 0
M  V30 52 H 1.4469 -4.0321 0.4658 0
M  V30 53 H 4.1615 -0.689 2.691 0
M  V30 54 H 2.651 -2.7025 2.1247 0
M  V30 55 H 5.5258 0.1563 1.0732 0
M  V30 56 H 2.1974 1.1275 1.1997 0
M  V30 57 H 3.5425 1.8695 2.9432 0
M  V30 58 H 1.5657 -1.0038 3.3264 0
M  V30 59 H 0.0465 0.7815 0.67 0
M  V30 60 H -1.6701 2.1453 2.8289 0
M  V30 61 H -1.2069 -1.9278 1.7786 0
M  V30 62 H -0.9296 2.8984 -0.0585 0
M  V30 63 H 0.9891 3.1298 1.708 0
M  V30 64 H 0.4371 3.0271 3.4069 0
M  V30 65 H -5.097 0.6574 0.027 0
M  V30 66 H -3.7154 2.7378 1.1729 0
M  V30 67 H -2.2284 1.1869 -1.923 0
M  V30 68 H -4.5282 4.4357 -0.2813 0
M  V30 69 H -5.4691 -3.7113 1.5506 0
M  V30 70 H -4.9184 -3.9913 -0.1202 0
M  V30 71 H -5.3937 5.8399 -1.806 0
M  V30 72 H -1.3743 0.4302 -3.8998 0
M  V30 73 H -2.251 0.0497 -5.3858 0
M  V30 74 H -3.086 -0.1419 -3.839 0
M  V30 75 H -4.909 4.8085 -4.6248 0
M  V30 END ATOM
M  V30 BEGIN BOND
M  V30 1 1 1 2
M  V30 2 1 1 3
M  V30 3 2 2 4
M  V30 4 1 2 5
M  V30 5 2 3 6
M  V30 6 1 5 7
M  V30 7 1 5 8
M  V30 8 1 7 9
M  V30 9 1 8 10
M  V30 10 1 9 11
M  V30 11 1 9 12
M  V30 12 1 11 13
M  V30 13 1 11 14
M  V30 14 1 12 15
M  V30 15 1 14 16
M  V30 16 1 14 17
M  V30 17 1 17 18
M  V30 18 1 18 19
M  V30 19 1 19 20
M  V30 20 1 19 21
M  V30 21 2 20 22
M  V30 22 1 20 23
M  V30 23 1 21 24
M  V30 24 1 21 25
M  V30 25 1 22 26
M  V30 26 1 22 27
M  V30 27 2 23 28
M  V30 28 1 24 29
M  V30 29 1 25 30
M  V30 30 2 26 31
M  V30 31 1 27 32
M  V30 32 1 28 33
M  V30 33 2 29 34
M  V30 34 1 31 35
M  V30 35 2 32 36
M  V30 36 1 32 37
M  V30 37 1 33 38
M  V30 38 1 36 39
M  V30 39 2 37 40
M  V30 40 1 39 41
M  V30 41 2 39 42
M  V30 42 1 40 43
M  V30 43 1 41 44
M  V30 44 1 42 45
M  V30 45 1 4 6
M  V30 46 1 10 12
M  V30 47 1 15 17
M  V30 48 1 24 27
M  V30 49 1 28 31
M  V30 50 1 29 30
M  V30 51 1 35 38
M  V30 52 1 40 42
M  V30 53 1 3 46
M  V30 54 1 4 47
M  V30 55 1 5 48
M  V30 56 1 6 49
M  V30 57 1 9 50
M  V30 58 1 10 51
M  V30 59 1 10 52
M  V30 60 1 11 53
M  V30 61 1 12 54
M  V30 62 1 13 55
M  V30 63 1 14 56
M  V30 64 1 16 57
M  V30 65 1 17 58
M  V30 66 1 19 59
M  V30 67 1 21 60
M  V30 68 1 23 61
M  V30 69 1 24 62
M  V30 70 1 25 63
M  V30 71 1 25 64
M  V30 72 1 26 65
M  V30 73 1 27 66
M  V30 74 1 36 67
M  V30 75 1 37 68
M  V30 76 1 38 69
M  V30 77 1 38 70
M  V30 78 1 43 71
M  V30 79 1 44 72
M  V30 80 1 44 73
M  V30 81 1 44 74
M  V30 82 1 45 75
M  V30 END BOND
M  V30 BEGIN COLLECTION
M  V30 MDLV30/STEABS ATOMS=(10 5 9 11 12 14 17 19 21 24 27)
M  V30 END COLLECTION
M  V30 END CTAB
M  END
>  <level_0>
5037

>  <index>
5037

>  <NO.>
5038

>  <Name>
teniposide

>  <SMILES>
COc1cc([C@H]2c3cc4c(cc3[C@H](O[C@H]3O[C@H]5CO[C@H](c6cccs6)O[C@@H]5[C@@H](O)[C@@H]3O)[C@H]3COC(=O)[C@H]23)OCO4)cc(O)c1O

>  <logBB>


>  <Class>
1

>  <MW>
642.14

>  <nHBAcc>
14

>  <nHBDon>
4

>  <SLogP>
2.45

>  <TopoPSA>
171.83

>  <MMFF94 Energy>
127.08

$$$$
C#CC1(O)CCC2C3CCc4cc(OC5CCCC5)ccc4C3CCC21C
Actelion Java MolfileCreator 2.0

  0  0  0  0  0  0              0 V3000
M  V30 BEGIN CTAB
M  V30 COUNTS 59 63 0 0 0
M  V30 BEGIN ATOM
M  V30 1 O 0.8833 -2.0084 4.1809 0
M  V30 2 C 0.6125 -1.2853 3.0545 0
M  V30 3 C 0.2834 -3.2871 4.3336 0
M  V30 4 C -0.2093 -1.6674 1.9981 0
M  V30 5 C 1.2389 -0.0436 2.9997 0
M  V30 6 C 1.0031 -4.0417 5.4496 0
M  V30 7 C -1.137 -3.2079 4.8866 0
M  V30 8 C -0.4104 -0.819 0.8888 0
M  V30 9 C 1.0567 0.804 1.9035 0
M  V30 10 C 0.015 -5.1217 5.8668 0
M  V30 11 C -1.3707 -4.5667 5.537 0
M  V30 12 C 0.2497 0.4257 0.8197 0
M  V30 13 C -1.3036 -1.3191 -0.2224 0
M  V30 14 C 0.0117 1.3682 -0.3578 0
M  V30 15 C -1.6991 -0.2481 -1.2347 0
M  V30 16 C -0.4736 0.586 -1.6146 0
M  V30 17 C 1.2011 2.3023 -0.7031 0
M  V30 18 C -0.7684 1.5853 -2.7352 0
M  V30 19 C 0.9369 3.206 -1.9229 0
M  V30 20 C 0.4797 2.4023 -3.1522 0
M  V30 21 C -1.313 1.0646 -4.0624 0
M  V30 22 C -0.1288 3.2227 -4.3259 0
M  V30 23 C 1.6565 1.515 -3.6501 0
M  V30 24 C -0.9951 2.1826 -5.0789 0
M  V30 25 O -1.0046 4.2323 -3.817 0
M  V30 26 C 0.8563 3.8734 -5.2028 0
M  V30 27 C 1.6527 4.4166 -5.9197 0
M  V30 28 H 0.344 -3.8882 3.4172 0
M  V30 29 H -0.7186 -2.6253 2.0031 0
M  V30 30 H 1.875 0.2742 3.8223 0
M  V30 31 H 1.9594 -4.4568 5.1157 0
M  V30 32 H 1.2223 -3.3728 6.2917 0
M  V30 33 H -1.2147 -2.4067 5.6325 0
M  V30 34 H -1.881 -2.9934 4.1138 0
M  V30 35 H 1.556 1.7683 1.9258 0
M  V30 36 H 0.1916 -6.0404 5.2956 0
M  V30 37 H 0.1151 -5.3695 6.9282 0
M  V30 38 H -1.995 -4.4746 6.4316 0
M  V30 39 H -1.8866 -5.2411 4.8441 0
M  V30 40 H -0.7696 -2.1234 -0.7446 0
M  V30 41 H -2.217 -1.7528 0.2026 0
M  V30 42 H -0.8119 2.024 -0.035 0
M  V30 43 H -2.4775 0.3986 -0.8093 0
M  V30 44 H -2.136 -0.7367 -2.1126 0
M  V30 45 H 0.3079 -0.1118 -1.9402 0
M  V30 46 H 1.4192 2.9646 0.1427 0
M  V30 47 H 2.1081 1.7077 -0.8641 0
M  V30 48 H -1.5317 2.276 -2.3411 0
M  V30 49 H 1.842 3.7799 -2.1552 0
M  V30 50 H 0.1728 3.9398 -1.6374 0
M  V30 51 H -2.3899 0.8723 -4.0126 0
M  V30 52 H -0.8244 0.1297 -4.3589 0
M  V30 53 H 1.9939 0.7952 -2.9002 0
M  V30 54 H 2.5282 2.1317 -3.8975 0
M  V30 55 H 1.401 0.9408 -4.5461 0
M  V30 56 H -1.925 2.6264 -5.4536 0
M  V30 57 H -0.4691 1.7453 -5.9361 0
M  V30 58 H -1.282 4.774 -4.5755 0
M  V30 59 H 2.3629 4.8999 -6.5505 0
M  V30 END ATOM
M  V30 BEGIN BOND
M  V30 1 1 1 2
M  V30 2 1 1 3
M  V30 3 2 2 4
M  V30 4 1 2 5
M  V30 5 1 3 6
M  V30 6 1 3 7
M  V30 7 1 4 8
M  V30 8 2 5 9
M  V30 9 1 6 10
M  V30 10 1 7 11
M  V30 11 2 8 12
M  V30 12 1 8 13
M  V30 13 1 12 14
M  V30 14 1 13 15
M  V30 15 1 14 16
M  V30 16 1 14 17
M  V30 17 1 16 18
M  V30 18 1 17 19
M  V30 19 1 18 20
M  V30 20 1 18 21
M  V30 21 1 20 22
M  V30 22 1 20 23
M  V30 23 1 21 24
M  V30 24 1 22 25
M  V30 25 1 22 26
M  V30 26 3 26 27
M  V30 27 1 9 12
M  V30 28 1 10 11
M  V30 29 1 15 16
M  V30 30 1 19 20
M  V30 31 1 22 24
M  V30 32 1 3 28
M  V30 33 1 4 29
M  V30 34 1 5 30
M  V30 35 1 6 31
M  V30 36 1 6 32
M  V30 37 1 7 33
M  V30 38 1 7 34
M  V30 39 1 9 35
M  V30 40 1 10 36
M  V30 41 1 10 37
M  V30 42 1 11 38
M  V30 43 1 11 39
M  V30 44 1 13 40
M  V30 45 1 13 41
M  V30 46 1 14 42
M  V30 47 1 15 43
M  V30 48 1 15 44
M  V30 49 1 16 45
M  V30 50 1 17 46
M  V30 51 1 17 47
M  V30 52 1 18 48
M  V30 53 1 19 49
M  V30 54 1 19 50
M  V30 55 1 21 51
M  V30 56 1 21 52
M  V30 57 1 23 53
M  V30 58 1 23 54
M  V30 59 1 23 55
M  V30 60 1 24 56
M  V30 61 1 24 57
M  V30 62 1 25 58
M  V30 63 1 27 59
M  V30 END BOND
M  V30 END CTAB
M  END
>  <level_0>
5069

>  <index>
5069

>  <NO.>
5070

>  <Name>
(8r,9s,13s,14s,17r)-3-cyclopentyloxy-17-ethynyl-13-methyl-7,8,9,11,12,14,15,16-octahydro-6h-cyclopenta[a]phenanthren-17-ol

>  <SMILES>
C#CC1(O)CCC2C3CCc4cc(OC5CCCC5)ccc4C3CCC21C

>  <logBB>


>  <Class>
-1

>  <MW>
364.24

>  <nHBAcc>
2

>  <nHBDon>
1

>  <SLogP>
5.23

>  <TopoPSA>
29.46

>  <MMFF94 Energy>
82.827

$$$$
C(=C/c1ccccc1)\CN1CCN(C(c2ccccc2)c2ccccc2)CC1
Actelion Java MolfileCreator 2.0

  0  0  0  0  0  0              0 V3000
M  V30 BEGIN CTAB
M  V30 COUNTS 56 59 0 0 0
M  V30 BEGIN ATOM
M  V30 1 N 1.4325 -0.5569 -0.159 0
M  V30 2 C 2.0489 -1.4477 0.8719 0
M  V30 3 C 0.7541 -1.3528 -1.2136 0
M  V30 4 C 0.4121 0.3351 0.4492 0
M  V30 5 C 3.0583 -2.4492 0.2919 0
M  V30 6 C 2.7028 -0.6827 2.0321 0
M  V30 7 C 0.035 -0.4682 -2.2576 0
M  V30 8 C -0.3013 1.2215 -0.5972 0
M  V30 9 C 3.0074 -3.7989 0.6811 0
M  V30 10 C 4.0635 -2.0505 -0.6063 0
M  V30 11 C 3.563 0.4065 1.8091 0
M  V30 12 C 2.4686 -1.0882 3.3575 0
M  V30 13 N -0.9712 0.4162 -1.64 0
M  V30 14 C 3.9262 -4.7218 0.1773 0
M  V30 15 C 4.9809 -2.9748 -1.1089 0
M  V30 16 C 4.1596 1.0771 2.8783 0
M  V30 17 C 3.0668 -0.4162 4.4256 0
M  V30 18 C -1.5963 1.2723 -2.655 0
M  V30 19 C 4.9112 -4.3097 -0.7174 0
M  V30 20 C 3.9106 0.6659 4.1856 0
M  V30 21 C -2.9093 1.8973 -2.2568 0
M  V30 22 C -3.674 1.5595 -1.2042 0
M  V30 23 C -4.9451 2.2105 -0.8598 0
M  V30 24 C -5.8719 2.6072 -1.8324 0
M  V30 25 C -5.2669 2.3918 0.4915 0
M  V30 26 C -7.0833 3.1974 -1.4616 0
M  V30 27 C -6.4776 2.9826 0.8625 0
M  V30 28 C -7.3843 3.3876 -0.1145 0
M  V30 29 H 1.2235 -2.036 1.3011 0
M  V30 30 H 0.0237 -2.0406 -0.7657 0
M  V30 31 H 1.4789 -1.9621 -1.7635 0
M  V30 32 H -0.3406 -0.2537 0.9913 0
M  V30 33 H 0.8756 1.0141 1.1726 0
M  V30 34 H 0.7821 0.1188 -2.8092 0
M  V30 35 H -0.4566 -1.1319 -2.9792 0
M  V30 36 H -1.0329 1.8412 -0.0666 0
M  V30 37 H 0.4342 1.9035 -1.0456 0
M  V30 38 H 2.2512 -4.1397 1.3845 0
M  V30 39 H 4.1271 -1.0124 -0.9241 0
M  V30 40 H 3.7629 0.7416 0.794 0
M  V30 41 H 1.8195 -1.9353 3.5664 0
M  V30 42 H 3.8757 -5.7623 0.4871 0
M  V30 43 H 5.7503 -2.6504 -1.8042 0
M  V30 44 H 4.8198 1.919 2.6886 0
M  V30 45 H 2.8773 -0.7406 5.4455 0
M  V30 46 H -1.8128 0.6804 -3.5545 0
M  V30 47 H -0.9054 2.0654 -2.9698 0
M  V30 48 H 5.6273 -5.0281 -1.107 0
M  V30 49 H 4.3775 1.1868 5.0172 0
M  V30 50 H -3.2352 2.6975 -2.9175 0
M  V30 51 H -3.3549 0.7642 -0.5341 0
M  V30 52 H -5.6666 2.4498 -2.888 0
M  V30 53 H -4.5715 2.081 1.2678 0
M  V30 54 H -7.7933 3.5026 -2.2257 0
M  V30 55 H -6.7117 3.1243 1.9143 0
M  V30 56 H -8.3268 3.8456 0.1733 0
M  V30 END ATOM
M  V30 BEGIN BOND
M  V30 1 1 1 2
M  V30 2 1 1 3
M  V30 3 1 1 4
M  V30 4 1 2 5
M  V30 5 1 2 6
M  V30 6 1 3 7
M  V30 7 1 4 8
M  V30 8 2 5 9
M  V30 9 1 5 10
M  V30 10 2 6 11
M  V30 11 1 6 12
M  V30 12 1 7 13
M  V30 13 1 9 14
M  V30 14 2 10 15
M  V30 15 1 11 16
M  V30 16 2 12 17
M  V30 17 1 13 18
M  V30 18 2 14 19
M  V30 19 2 16 20
M  V30 20 1 18 21
M  V30 21 2 21 22
M  V30 22 1 22 23
M  V30 23 2 23 24
M  V30 24 1 23 25
M  V30 25 1 24 26
M  V30 26 2 25 27
M  V30 27 2 26 28
M  V30 28 1 8 13
M  V30 29 1 15 19
M  V30 30 1 17 20
M  V30 31 1 27 28
M  V30 32 1 2 29
M  V30 33 1 3 30
M  V30 34 1 3 31
M  V30 35 1 4 32
M  V30 36 1 4 33
M  V30 37 1 7 34
M  V30 38 1 7 35
M  V30 39 1 8 36
M  V30 40 1 8 37
M  V30 41 1 9 38
M  V30 42 1 10 39
M  V30 43 1 11 40
M  V30 44 1 12 41
M  V30 45 1 14 42
M  V30 46 1 15 43
M  V30 47 1 16 44
M  V30 48 1 17 45
M  V30 49 1 18 46
M  V30 50 1 18 47
M  V30 51 1 19 48
M  V30 52 1 20 49
M  V30 53 1 21 50
M  V30 54 1 22 51
M  V30 55 1 24 52
M  V30 56 1 25 53
M  V30 57 1 26 54
M  V30 58 1 27 55
M  V30 59 1 28 56
M  V30 END BOND
M  V30 END CTAB
M  END
>  <level_0>
5070

>  <index>
5070

>  <NO.>
5071

>  <Name>
cinnarizine

>  <SMILES>
C(=C/c1ccccc1)\CN1CCN(C(c2ccccc2)c2ccccc2)CC1

>  <logBB>


>  <Class>
1

>  <MW>
368.23

>  <nHBAcc>
2

>  <nHBDon>
0

>  <SLogP>
5.11

>  <TopoPSA>
6.48

>  <MMFF94 Energy>
125.2

$$$$
C1CNCCN1
Actelion Java MolfileCreator 2.0

  0  0  0  0  0  0              0 V3000
M  V30 BEGIN CTAB
M  V30 COUNTS 16 16 0 0 0
M  V30 BEGIN ATOM
M  V30 1 N 1.3144 0.1545 0.6957 0
M  V30 2 C 0.9585 -0.9964 -0.1499 0
M  V30 3 C 0.5446 1.3332 0.2654 0
M  V30 4 C -0.5617 -1.2589 -0.1921 0
M  V30 5 C -0.9757 1.0707 0.2232 0
M  V30 6 N -1.3315 -0.0803 -0.6224 0
M  V30 7 H 2.3086 0.35 0.5903 0
M  V30 8 H 1.4648 -1.8866 0.2387 0
M  V30 9 H 1.3327 -0.8321 -1.1683 0
M  V30 10 H 0.7465 2.1562 0.9596 0
M  V30 11 H 0.8907 1.6551 -0.7248 0
M  V30 12 H -0.7638 -2.0819 -0.8862 0
M  V30 13 H -0.908 -1.5808 0.7982 0
M  V30 14 H -1.4821 1.9609 -0.1654 0
M  V30 15 H -1.3499 0.9064 1.2417 0
M  V30 16 H -2.3257 -0.2757 -0.517 0
M  V30 END ATOM
M  V30 BEGIN BOND
M  V30 1 1 1 2
M  V30 2 1 1 3
M  V30 3 1 2 4
M  V30 4 1 3 5
M  V30 5 1 4 6
M  V30 6 1 5 6
M  V30 7 1 1 7
M  V30 8 1 2 8
M  V30 9 1 2 9
M  V30 10 1 3 10
M  V30 11 1 3 11
M  V30 12 1 4 12
M  V30 13 1 4 13
M  V30 14 1 5 14
M  V30 15 1 5 15
M  V30 16 1 6 16
M  V30 END BOND
M  V30 END CTAB
M  END
>  <level_0>
5071

>  <index>
5071

>  <NO.>
5072

>  <Name>
piperazine citrate

>  <SMILES>
C1CNCCN1

>  <logBB>


>  <Class>
-1

>  <MW>
86.08

>  <nHBAcc>
2

>  <nHBDon>
2

>  <SLogP>
-0.82

>  <TopoPSA>
24.06

>  <MMFF94 Energy>
62.028

$$$$
C=C(c1ccc(C(=O)O)cc1)c1cc2c(cc1C)C(C)(C)CCC2(C)C
Actelion Java MolfileCreator 2.0

  0  0  0  0  0  0              0 V3000
M  V30 BEGIN CTAB
M  V30 COUNTS 54 56 0 0 0
M  V30 BEGIN ATOM
M  V30 1 O 3.0979 5.0081 -4.9284 0
M  V30 2 C 2.6301 3.8855 -4.8772 0
M  V30 3 O 2.9933 2.9379 -5.7595 0
M  V30 4 C 1.6358 3.4029 -3.8887 0
M  V30 5 C 1.177 4.2982 -2.9167 0
M  V30 6 C 1.1544 2.0902 -3.8975 0
M  V30 7 C 0.2396 3.8842 -1.964 0
M  V30 8 C 0.2171 1.6804 -2.9425 0
M  V30 9 C -0.2613 2.5733 -1.9714 0
M  V30 10 C -1.2372 2.1028 -0.954 0
M  V30 11 C -1.1443 0.7856 -0.2733 0
M  V30 12 C -2.2642 2.897 -0.5966 0
M  V30 13 C -2.03 -0.2714 -0.5186 0
M  V30 14 C -0.0977 0.5999 0.6436 0
M  V30 15 C -1.8703 -1.4652 0.2036 0
M  V30 16 C -3.1629 -0.161 -1.5022 0
M  V30 17 C 0.0932 -0.61 1.3471 0
M  V30 18 C -0.8368 -1.6539 1.1498 0
M  V30 19 C 1.2714 -0.7279 2.3232 0
M  V30 20 C -0.7387 -2.9937 1.8929 0
M  V30 21 C 1.5168 -2.1937 2.7443 0
M  V30 22 C 2.5929 -0.2272 1.6925 0
M  V30 23 C 0.9711 0.1336 3.57 0
M  V30 24 C 0.2231 -2.9073 3.0988 0
M  V30 25 C -2.1082 -3.4404 2.4584 0
M  V30 26 C -0.2457 -4.0736 0.9043 0
M  V30 27 H 3.6406 3.3928 -6.3378 0
M  V30 28 H 1.5502 5.3203 -2.8917 0
M  V30 29 H 1.5014 1.3748 -4.6389 0
M  V30 30 H -0.0837 4.5952 -1.2068 0
M  V30 31 H -0.1393 0.6523 -2.9673 0
M  V30 32 H -2.9843 2.5896 0.1572 0
M  V30 33 H -2.4308 3.8704 -1.0466 0
M  V30 34 H 0.5793 1.435 0.8158 0
M  V30 35 H -2.5712 -2.2751 0.0093 0
M  V30 36 H -2.8329 0.3116 -2.4325 0
M  V30 37 H -3.985 0.4173 -1.0694 0
M  V30 38 H -3.5503 -1.1492 -1.7732 0
M  V30 39 H 2.0235 -2.7417 1.94 0
M  V30 40 H 2.1975 -2.2312 3.6048 0
M  V30 41 H 2.5824 0.8496 1.4942 0
M  V30 42 H 2.7959 -0.736 0.7427 0
M  V30 43 H 3.4416 -0.4155 2.361 0
M  V30 44 H 0.9083 1.1989 3.3181 0
M  V30 45 H 0.0183 -0.1387 4.0371 0
M  V30 46 H 1.7584 0.0248 4.3246 0
M  V30 47 H 0.4561 -3.9139 3.4698 0
M  V30 48 H -0.2598 -2.3863 3.9353 0
M  V30 49 H -2.5526 -2.6574 3.0842 0
M  V30 50 H -2.8294 -3.6825 1.6709 0
M  V30 51 H -2.0021 -4.3412 3.0749 0
M  V30 52 H -0.0962 -5.0341 1.4105 0
M  V30 53 H 0.7008 -3.7934 0.4293 0
M  V30 54 H -0.9688 -4.2413 0.0974 0
M  V30 END ATOM
M  V30 BEGIN BOND
M  V30 1 2 1 2
M  V30 2 1 2 3
M  V30 3 1 2 4
M  V30 4 2 4 5
M  V30 5 1 4 6
M  V30 6 1 5 7
M  V30 7 2 6 8
M  V30 8 2 7 9
M  V30 9 1 9 10
M  V30 10 1 10 11
M  V30 11 2 10 12
M  V30 12 2 11 13
M  V30 13 1 11 14
M  V30 14 1 13 15
M  V30 15 1 13 16
M  V30 16 2 14 17
M  V30 17 2 15 18
M  V30 18 1 17 19
M  V30 19 1 18 20
M  V30 20 1 19 21
M  V30 21 1 19 22
M  V30 22 1 19 23
M  V30 23 1 20 24
M  V30 24 1 20 25
M  V30 25 1 20 26
M  V30 26 1 8 9
M  V30 27 1 17 18
M  V30 28 1 21 24
M  V30 29 1 3 27
M  V30 30 1 5 28
M  V30 31 1 6 29
M  V30 32 1 7 30
M  V30 33 1 8 31
M  V30 34 1 12 32
M  V30 35 1 12 33
M  V30 36 1 14 34
M  V30 37 1 15 35
M  V30 38 1 16 36
M  V30 39 1 16 37
M  V30 40 1 16 38
M  V30 41 1 21 39
M  V30 42 1 21 40
M  V30 43 1 22 41
M  V30 44 1 22 42
M  V30 45 1 22 43
M  V30 46 1 23 44
M  V30 47 1 23 45
M  V30 48 1 23 46
M  V30 49 1 24 47
M  V30 50 1 24 48
M  V30 51 1 25 49
M  V30 52 1 25 50
M  V30 53 1 25 51
M  V30 54 1 26 52
M  V30 55 1 26 53
M  V30 56 1 26 54
M  V30 END BOND
M  V30 END CTAB
M  END
>  <level_0>
5073

>  <index>
5073

>  <NO.>
5074

>  <Name>
bexarotene

>  <SMILES>
C=C(c1ccc(C(=O)O)cc1)c1cc2c(cc1C)C(C)(C)CCC2(C)C

>  <logBB>


>  <Class>
-1

>  <MW>
348.21

>  <nHBAcc>
1

>  <nHBDon>
1

>  <SLogP>
6.1

>  <TopoPSA>
37.3

>  <MMFF94 Energy>
81.64

$$$$
C=C1C(=CC=C2CCCC3(C)C2CCC3C(C)CCCC(C)(C)O)CC(O)CC1O
Actelion Java MolfileCreator 2.0

  0  0  0  0  0  0              0 V3000
M  V30 BEGIN CTAB
M  V30 COUNTS 74 76 0 0 0
M  V30 BEGIN ATOM
M  V30 1 O -2.5269 0.868 7.9132 0
M  V30 2 C -3.5241 0.5138 6.9529 0
M  V30 3 C -2.8595 -0.2235 5.7716 0
M  V30 4 C -4.5336 -0.4101 7.6421 0
M  V30 5 C -4.2204 1.8043 6.5185 0
M  V30 6 C -1.7758 0.587 5.0456 0
M  V30 7 C -1.0988 -0.2533 3.9536 0
M  V30 8 C -0.1131 0.5453 3.0606 0
M  V30 9 C 0.5418 -0.3528 1.9711 0
M  V30 10 C 0.9702 1.199 3.9337 0
M  V30 11 C 1.2903 0.3505 0.7581 0
M  V30 12 C -0.4194 -1.353 1.299 0
M  V30 13 C 0.7307 -0.381 -0.5096 0
M  V30 14 C 2.8184 0.1255 0.9253 0
M  V30 15 C 1.0046 1.8561 0.5875 0
M  V30 16 C 0.2849 -1.7428 0.0087 0
M  V30 17 C 1.6394 -0.436 -1.7272 0
M  V30 18 C 3.608 0.2767 -0.3701 0
M  V30 19 C 1.1123 -0.2323 -2.954 0
M  V30 20 C 3.0952 -0.6937 -1.4283 0
M  V30 21 C 1.8131 -0.238 -4.2223 0
M  V30 22 C 1.2764 -0.0525 -5.447 0
M  V30 23 C 2.1236 -0.0932 -6.6496 0
M  V30 24 C -0.1897 0.1619 -5.761 0
M  V30 25 C 3.2257 0.6713 -6.7531 0
M  V30 26 C 1.6299 -1.0407 -7.7323 0
M  V30 27 C -0.7016 -0.8541 -6.7894 0
M  V30 28 O 2.3736 -0.8982 -8.9412 0
M  V30 29 C 0.1507 -0.8229 -8.054 0
M  V30 30 O -2.0538 -0.5407 -7.121 0
M  V30 31 H -2.0819 0.0518 8.1982 0
M  V30 32 H -2.3927 -1.1434 6.1484 0
M  V30 33 H -3.6279 -0.528 5.0496 0
M  V30 34 H -4.9704 0.0756 8.5224 0
M  V30 35 H -4.0455 -1.3219 8.0049 0
M  V30 36 H -5.3446 -0.6974 6.9651 0
M  V30 37 H -4.7314 2.2736 7.3676 0
M  V30 38 H -4.9598 1.6185 5.7329 0
M  V30 39 H -3.501 2.5469 6.1576 0
M  V30 40 H -1.03 0.9236 5.773 0
M  V30 41 H -2.2193 1.477 4.5862 0
M  V30 42 H -0.573 -1.0964 4.4196 0
M  V30 43 H -1.8908 -0.6795 3.3274 0
M  V30 44 H -0.6927 1.3364 2.572 0
M  V30 45 H 1.2695 -0.9816 2.5055 0
M  V30 46 H 1.4361 0.4617 4.5968 0
M  V30 47 H 0.5472 1.9949 4.5548 0
M  V30 48 H 1.768 1.6535 3.3447 0
M  V30 49 H -0.6094 -2.2299 1.9261 0
M  V30 50 H -1.3807 -0.8767 1.0702 0
M  V30 51 H -0.1913 0.1453 -0.8054 0
M  V30 52 H 3.0124 -0.8865 1.3044 0
M  V30 53 H 3.2226 0.8125 1.678 0
M  V30 54 H -0.0713 2.0552 0.5378 0
M  V30 55 H 1.4212 2.456 1.3997 0
M  V30 56 H 1.4385 2.2405 -0.3422 0
M  V30 57 H 1.1344 -2.405 0.2112 0
M  V30 58 H -0.3927 -2.252 -0.6837 0
M  V30 59 H 4.6658 0.0674 -0.1713 0
M  V30 60 H 3.5552 1.3084 -0.7368 0
M  V30 61 H 0.0424 -0.0445 -3.0063 0
M  V30 62 H 3.2091 -1.726 -1.0749 0
M  V30 63 H 3.7349 -0.6002 -2.3087 0
M  V30 64 H 2.8843 -0.417 -4.1719 0
M  V30 65 H -0.3292 1.1814 -6.1471 0
M  V30 66 H -0.8326 0.1074 -4.8778 0
M  V30 67 H 3.5291 1.3485 -5.9598 0
M  V30 68 H 3.8679 0.6344 -7.6272 0
M  V30 69 H 1.7788 -2.0713 -7.3875 0
M  V30 70 H -0.6913 -1.8598 -6.3513 0
M  V30 71 H 2.2631 0.0226 -9.234 0
M  V30 72 H 0.0072 0.1304 -8.5819 0
M  V30 73 H -0.1962 -1.5831 -8.7655 0
M  V30 74 H -2.3678 -1.2173 -7.7458 0
M  V30 END ATOM
M  V30 BEGIN BOND
M  V30 1 1 1 2
M  V30 2 1 2 3
M  V30 3 1 2 4
M  V30 4 1 2 5
M  V30 5 1 3 6
M  V30 6 1 6 7
M  V30 7 1 7 8
M  V30 8 1 8 9
M  V30 9 1 8 10
M  V30 10 1 9 11
M  V30 11 1 9 12
M  V30 12 1 11 13
M  V30 13 1 11 14
M  V30 14 1 11 15
M  V30 15 1 12 16
M  V30 16 1 13 17
M  V30 17 1 14 18
M  V30 18 2 17 19
M  V30 19 1 17 20
M  V30 20 1 19 21
M  V30 21 2 21 22
M  V30 22 1 22 23
M  V30 23 1 22 24
M  V30 24 2 23 25
M  V30 25 1 23 26
M  V30 26 1 24 27
M  V30 27 1 26 28
M  V30 28 1 26 29
M  V30 29 1 27 30
M  V30 30 1 13 16
M  V30 31 1 18 20
M  V30 32 1 27 29
M  V30 33 1 1 31
M  V30 34 1 3 32
M  V30 35 1 3 33
M  V30 36 1 4 34
M  V30 37 1 4 35
M  V30 38 1 4 36
M  V30 39 1 5 37
M  V30 40 1 5 38
M  V30 41 1 5 39
M  V30 42 1 6 40
M  V30 43 1 6 41
M  V30 44 1 7 42
M  V30 45 1 7 43
M  V30 46 1 8 44
M  V30 47 1 9 45
M  V30 48 1 10 46
M  V30 49 1 10 47
M  V30 50 1 10 48
M  V30 51 1 12 49
M  V30 52 1 12 50
M  V30 53 1 13 51
M  V30 54 1 14 52
M  V30 55 1 14 53
M  V30 56 1 15 54
M  V30 57 1 15 55
M  V30 58 1 15 56
M  V30 59 1 16 57
M  V30 60 1 16 58
M  V30 61 1 18 59
M  V30 62 1 18 60
M  V30 63 1 19 61
M  V30 64 1 20 62
M  V30 65 1 20 63
M  V30 66 1 21 64
M  V30 67 1 24 65
M  V30 68 1 24 66
M  V30 69 1 25 67
M  V30 70 1 25 68
M  V30 71 1 26 69
M  V30 72 1 27 70
M  V30 73 1 28 71
M  V30 74 1 29 72
M  V30 75 1 29 73
M  V30 76 1 30 74
M  V30 END BOND
M  V30 END CTAB
M  END
>  <level_0>
5074

>  <index>
5074

>  <NO.>
5075

>  <Name>
calcitriol

>  <SMILES>
C=C1C(=CC=C2CCCC3(C)C2CCC3C(C)CCCC(C)(C)O)CC(O)CC1O

>  <logBB>


>  <Class>
-1

>  <MW>
416.33

>  <nHBAcc>
3

>  <nHBDon>
3

>  <SLogP>
5.7

>  <TopoPSA>
60.69

>  <MMFF94 Energy>
89.337

$$$$
C=C1C(=CC=C2CCCC3(C)C2CCC3C(C)CCCC(C)C)CC(O)CC1O
Actelion Java MolfileCreator 2.0

  0  0  0  0  0  0              0 V3000
M  V30 BEGIN CTAB
M  V30 COUNTS 73 75 0 0 0
M  V30 BEGIN ATOM
M  V30 1 O 6.1639 4.9762 1.0252 0
M  V30 2 C 4.8929 4.6281 1.5709 0
M  V30 3 C 4.7815 3.13 1.7942 0
M  V30 4 C 4.687 5.4003 2.8742 0
M  V30 5 C 3.5568 2.7112 2.4907 0
M  V30 6 C 5.7216 2.2388 1.4341 0
M  V30 7 C 3.3796 4.9956 3.5516 0
M  V30 8 C 2.7551 1.7633 1.963 0
M  V30 9 C 3.3162 3.4787 3.7743 0
M  V30 10 O 3.2682 5.658 4.8109 0
M  V30 11 C 1.5346 1.2378 2.5414 0
M  V30 12 C 0.664 0.3879 1.9552 0
M  V30 13 C 0.7695 -0.122 0.5311 0
M  V30 14 C -0.5359 -0.0913 2.737 0
M  V30 15 C -0.5714 -0.3236 -0.2662 0
M  V30 16 C 1.5042 -1.4499 0.3926 0
M  V30 17 C -1.8203 0.1008 1.9424 0
M  V30 18 C -0.2661 -1.5431 -1.2328 0
M  V30 19 C -1.7625 -0.7055 0.6512 0
M  V30 20 C -0.8786 1.0124 -0.9754 0
M  V30 21 C 1.2445 -1.7905 -1.067 0
M  V30 22 C -0.7424 -1.4626 -2.7081 0
M  V30 23 C -2.2834 -1.5115 -2.8665 0
M  V30 24 C -0.0981 -2.553 -3.5802 0
M  V30 25 C -2.9574 -2.8182 -2.4252 0
M  V30 26 C -4.4741 -2.7528 -2.6442 0
M  V30 27 C -5.226 -3.982 -2.1007 0
M  V30 28 C -6.7359 -3.7645 -2.2285 0
M  V30 29 C -4.8289 -5.2741 -2.8159 0
M  V30 30 H 6.1487 5.9298 0.842 0
M  V30 31 H 4.1333 4.9268 0.8371 0
M  V30 32 H 4.6939 6.4806 2.6803 0
M  V30 33 H 5.5345 5.2385 3.555 0
M  V30 34 H 6.6326 2.5552 0.935 0
M  V30 35 H 5.6179 1.1778 1.6372 0
M  V30 36 H 2.5273 5.3108 2.9368 0
M  V30 37 H 3.0562 1.3245 1.0137 0
M  V30 38 H 2.3535 3.2443 4.2386 0
M  V30 39 H 4.0696 3.1825 4.5173 0
M  V30 40 H 3.2928 6.6162 4.6469 0
M  V30 41 H 1.3288 1.538 3.5665 0
M  V30 42 H 1.3567 0.6086 -0.043 0
M  V30 43 H -0.6322 0.4389 3.6922 0
M  V30 44 H -0.4012 -1.1523 2.9815 0
M  V30 45 H 2.5747 -1.3599 0.6016 0
M  V30 46 H 1.0859 -2.2174 1.0547 0
M  V30 47 H -1.9894 1.1628 1.7302 0
M  V30 48 H -2.6716 -0.2415 2.5426 0
M  V30 49 H -0.7271 -2.4436 -0.8059 0
M  V30 50 H -2.7099 -0.5945 0.1105 0
M  V30 51 H -1.6997 -1.7643 0.9345 0
M  V30 52 H -1.8452 1.0072 -1.4829 0
M  V30 53 H -0.11 1.2564 -1.7167 0
M  V30 54 H -0.905 1.8426 -0.2603 0
M  V30 55 H 1.8241 -1.1307 -1.7238 0
M  V30 56 H 1.5231 -2.8264 -1.2842 0
M  V30 57 H -0.407 -0.507 -3.1294 0
M  V30 58 H -2.5242 -1.3359 -3.9236 0
M  V30 59 H -2.7435 -0.6842 -2.3209 0
M  V30 60 H -0.5304 -2.5561 -4.5866 0
M  V30 61 H -0.2317 -3.5494 -3.147 0
M  V30 62 H 0.9765 -2.3791 -3.6964 0
M  V30 63 H -2.7615 -3.0071 -1.3651 0
M  V30 64 H -2.5425 -3.6557 -2.9935 0
M  V30 65 H -4.6824 -2.6334 -3.7151 0
M  V30 66 H -4.8625 -1.8546 -2.1464 0
M  V30 67 H -4.9925 -4.0941 -1.0343 0
M  V30 68 H -7.0473 -2.8656 -1.6858 0
M  V30 69 H -7.0337 -3.6487 -3.2762 0
M  V30 70 H -7.2884 -4.6127 -1.8106 0
M  V30 71 H -3.7801 -5.5255 -2.6319 0
M  V30 72 H -4.9762 -5.1904 -3.8979 0
M  V30 73 H -5.4303 -6.1167 -2.4575 0
M  V30 END ATOM
M  V30 BEGIN BOND
M  V30 1 1 1 2
M  V30 2 1 2 3
M  V30 3 1 2 4
M  V30 4 1 3 5
M  V30 5 2 3 6
M  V30 6 1 4 7
M  V30 7 2 5 8
M  V30 8 1 5 9
M  V30 9 1 7 10
M  V30 10 1 8 11
M  V30 11 2 11 12
M  V30 12 1 12 13
M  V30 13 1 12 14
M  V30 14 1 13 15
M  V30 15 1 13 16
M  V30 16 1 14 17
M  V30 17 1 15 18
M  V30 18 1 15 19
M  V30 19 1 15 20
M  V30 20 1 16 21
M  V30 21 1 18 22
M  V30 22 1 22 23
M  V30 23 1 22 24
M  V30 24 1 23 25
M  V30 25 1 25 26
M  V30 26 1 26 27
M  V30 27 1 27 28
M  V30 28 1 27 29
M  V30 29 1 7 9
M  V30 30 1 17 19
M  V30 31 1 18 21
M  V30 32 1 1 30
M  V30 33 1 2 31
M  V30 34 1 4 32
M  V30 35 1 4 33
M  V30 36 1 6 34
M  V30 37 1 6 35
M  V30 38 1 7 36
M  V30 39 1 8 37
M  V30 40 1 9 38
M  V30 41 1 9 39
M  V30 42 1 10 40
M  V30 43 1 11 41
M  V30 44 1 13 42
M  V30 45 1 14 43
M  V30 46 1 14 44
M  V30 47 1 16 45
M  V30 48 1 16 46
M  V30 49 1 17 47
M  V30 50 1 17 48
M  V30 51 1 18 49
M  V30 52 1 19 50
M  V30 53 1 19 51
M  V30 54 1 20 52
M  V30 55 1 20 53
M  V30 56 1 20 54
M  V30 57 1 21 55
M  V30 58 1 21 56
M  V30 59 1 22 57
M  V30 60 1 23 58
M  V30 61 1 23 59
M  V30 62 1 24 60
M  V30 63 1 24 61
M  V30 64 1 24 62
M  V30 65 1 25 63
M  V30 66 1 25 64
M  V30 67 1 26 65
M  V30 68 1 26 66
M  V30 69 1 27 67
M  V30 70 1 28 68
M  V30 71 1 28 69
M  V30 72 1 28 70
M  V30 73 1 29 71
M  V30 74 1 29 72
M  V30 75 1 29 73
M  V30 END BOND
M  V30 END CTAB
M  END
>  <level_0>
5075

>  <index>
5075

>  <NO.>
5076

>  <Name>
alfacalcidol

>  <SMILES>
C=C1C(=CC=C2CCCC3(C)C2CCC3C(C)CCCC(C)C)CC(O)CC1O

>  <logBB>


>  <Class>
-1

>  <MW>
400.33

>  <nHBAcc>
2

>  <nHBDon>
2

>  <SLogP>
6.59

>  <TopoPSA>
40.46

>  <MMFF94 Energy>
81.486

$$$$
C=C1CCC(O)CC1=CC=C1CCCC2(C)C1CCC2C(C)C=CC(C)C(C)C
Actelion Java MolfileCreator 2.0

  0  0  0  0  0  0              0 V3000
M  V30 BEGIN CTAB
M  V30 COUNTS 73 75 0 0 0
M  V30 BEGIN ATOM
M  V30 1 O -7.3509 -0.3941 -2.6826 0
M  V30 2 C -6.7106 -1.4327 -1.9413 0
M  V30 3 C -5.2569 -1.596 -2.4103 0
M  V30 4 C -7.503 -2.7305 -2.1031 0
M  V30 5 C -4.5751 -2.7823 -1.7606 0
M  V30 6 C -6.8029 -3.8898 -1.3996 0
M  V30 7 C -5.3651 -4.0148 -1.8444 0
M  V30 8 C -3.3871 -2.7695 -1.1209 0
M  V30 9 C -4.8606 -5.1644 -2.3203 0
M  V30 10 C -2.4931 -1.6389 -0.9731 0
M  V30 11 C -1.3567 -1.5901 -0.2462 0
M  V30 12 C -0.5322 -0.3107 -0.2296 0
M  V30 13 C -0.8096 -2.7087 0.6132 0
M  V30 14 C -0.0981 0.1604 1.1875 0
M  V30 15 C 0.772 -0.4156 -1.0243 0
M  V30 16 C -0.487 -2.2292 2.0276 0
M  V30 17 C 1.0026 1.2096 0.8303 0
M  V30 18 C 0.4516 -1.023 2.0203 0
M  V30 19 C -1.3083 0.8011 1.8971 0
M  V30 20 C 1.7337 0.5794 -0.3799 0
M  V30 21 C 2.0039 1.6526 1.9324 0
M  V30 22 C 2.9994 2.6509 1.3703 0
M  V30 23 C 1.337 2.2995 3.1474 0
M  V30 24 C 4.3296 2.4626 1.3649 0
M  V30 25 C 5.3214 3.4632 0.8091 0
M  V30 26 C 6.1937 2.8367 -0.3155 0
M  V30 27 C 6.1619 3.9961 1.9756 0
M  V30 28 C 5.3367 2.3267 -1.483 0
M  V30 29 C 7.2292 3.8267 -0.8627 0
M  V30 30 H -7.3608 -0.6581 -3.6188 0
M  V30 31 H -6.7212 -1.1286 -0.8875 0
M  V30 32 H -4.7371 -0.6506 -2.2282 0
M  V30 33 H -5.2348 -1.7272 -3.5011 0
M  V30 34 H -7.632 -2.9585 -3.1696 0
M  V30 35 H -8.5155 -2.6 -1.7023 0
M  V30 36 H -7.36 -4.8144 -1.5933 0
M  V30 37 H -6.8272 -3.731 -0.3136 0
M  V30 38 H -3.0497 -3.7033 -0.6774 0
M  V30 39 H -3.8327 -5.2396 -2.6631 0
M  V30 40 H -5.4655 -6.0633 -2.3871 0
M  V30 41 H -2.7649 -0.7457 -1.531 0
M  V30 42 H -1.1161 0.5026 -0.6878 0
M  V30 43 H -1.5007 -3.5512 0.6987 0
M  V30 44 H 0.0988 -3.1067 0.1456 0
M  V30 45 H 0.6069 -0.1781 -2.0814 0
M  V30 46 H 1.2074 -1.4205 -0.9911 0
M  V30 47 H -0.0167 -3.047 2.5866 0
M  V30 48 H -1.4139 -1.9833 2.5595 0
M  V30 49 H 0.4941 2.112 0.4559 0
M  V30 50 H 1.4227 -1.3499 1.628 0
M  V30 51 H 0.6319 -0.7111 3.0556 0
M  V30 52 H -1.6141 1.7286 1.4001 0
M  V30 53 H -2.1787 0.1363 1.8945 0
M  V30 54 H -1.0983 1.0383 2.9421 0
M  V30 55 H 2.6444 0.0521 -0.0717 0
M  V30 56 H 2.0321 1.3512 -1.0983 0
M  V30 57 H 2.5539 0.7717 2.2879 0
M  V30 58 H 2.5862 3.5698 0.9567 0
M  V30 59 H 0.6141 3.067 2.8497 0
M  V30 60 H 0.8223 1.5541 3.7586 0
M  V30 61 H 2.0776 2.7748 3.8019 0
M  V30 62 H 4.7441 1.5468 1.7833 0
M  V30 63 H 4.7734 4.3156 0.3839 0
M  V30 64 H 6.7414 1.9771 0.0942 0
M  V30 65 H 5.5234 4.3394 2.7983 0
M  V30 66 H 6.833 3.225 2.3706 0
M  V30 67 H 6.77 4.8527 1.6684 0
M  V30 68 H 4.7186 3.1289 -1.9005 0
M  V30 69 H 4.6763 1.5128 -1.1693 0
M  V30 70 H 5.9684 1.9337 -2.2871 0
M  V30 71 H 7.9688 4.0931 -0.1016 0
M  V30 72 H 7.7807 3.39 -1.7026 0
M  V30 73 H 6.7502 4.7466 -1.215 0
M  V30 END ATOM
M  V30 BEGIN BOND
M  V30 1 1 1 2
M  V30 2 1 2 3
M  V30 3 1 2 4
M  V30 4 1 3 5
M  V30 5 1 4 6
M  V30 6 1 5 7
M  V30 7 2 5 8
M  V30 8 2 7 9
M  V30 9 1 8 10
M  V30 10 2 10 11
M  V30 11 1 11 12
M  V30 12 1 11 13
M  V30 13 1 12 14
M  V30 14 1 12 15
M  V30 15 1 13 16
M  V30 16 1 14 17
M  V30 17 1 14 18
M  V30 18 1 14 19
M  V30 19 1 15 20
M  V30 20 1 17 21
M  V30 21 1 21 22
M  V30 22 1 21 23
M  V30 23 2 22 24
M  V30 24 1 24 25
M  V30 25 1 25 26
M  V30 26 1 25 27
M  V30 27 1 26 28
M  V30 28 1 26 29
M  V30 29 1 6 7
M  V30 30 1 16 18
M  V30 31 1 17 20
M  V30 32 1 1 30
M  V30 33 1 2 31
M  V30 34 1 3 32
M  V30 35 1 3 33
M  V30 36 1 4 34
M  V30 37 1 4 35
M  V30 38 1 6 36
M  V30 39 1 6 37
M  V30 40 1 8 38
M  V30 41 1 9 39
M  V30 42 1 9 40
M  V30 43 1 10 41
M  V30 44 1 12 42
M  V30 45 1 13 43
M  V30 46 1 13 44
M  V30 47 1 15 45
M  V30 48 1 15 46
M  V30 49 1 16 47
M  V30 50 1 16 48
M  V30 51 1 17 49
M  V30 52 1 18 50
M  V30 53 1 18 51
M  V30 54 1 19 52
M  V30 55 1 19 53
M  V30 56 1 19 54
M  V30 57 1 20 55
M  V30 58 1 20 56
M  V30 59 1 21 57
M  V30 60 1 22 58
M  V30 61 1 23 59
M  V30 62 1 23 60
M  V30 63 1 23 61
M  V30 64 1 24 62
M  V30 65 1 25 63
M  V30 66 1 26 64
M  V30 67 1 27 65
M  V30 68 1 27 66
M  V30 69 1 27 67
M  V30 70 1 28 68
M  V30 71 1 28 69
M  V30 72 1 28 70
M  V30 73 1 29 71
M  V30 74 1 29 72
M  V30 75 1 29 73
M  V30 END BOND
M  V30 END CTAB
M  END
>  <level_0>
5076

>  <index>
5076

>  <NO.>
5077

>  <Name>
ergocalciferol

>  <SMILES>
C=C1CCC(O)CC1=CC=C1CCCC2(C)C1CCC2C(C)C=CC(C)C(C)C

>  <logBB>


>  <Class>
-1

>  <MW>
396.34

>  <nHBAcc>
1

>  <nHBDon>
1

>  <SLogP>
7.64

>  <TopoPSA>
20.23

>  <MMFF94 Energy>
82.528

$$$$
C=C1CCC(O)CC1=CC=C1CCCC2(C)C1CCC2C(C)CCCC(C)C
Actelion Java MolfileCreator 2.0

  0  0  0  0  0  0              0 V3000
M  V30 BEGIN CTAB
M  V30 COUNTS 72 74 0 0 0
M  V30 BEGIN ATOM
M  V30 1 O 6.3179 3.0761 -2.2866 0
M  V30 2 C 5.101 3.0639 -3.0332 0
M  V30 3 C 4.5949 1.6224 -3.1931 0
M  V30 4 C 5.334 3.7318 -4.3889 0
M  V30 5 C 3.3865 1.5368 -4.1023 0
M  V30 6 C 4.0806 3.6596 -5.2565 0
M  V30 7 C 3.5749 2.2414 -5.3745 0
M  V30 8 C 2.2154 0.9284 -3.8205 0
M  V30 9 C 3.3532 1.6571 -6.5628 0
M  V30 10 C 1.8906 0.1845 -2.6204 0
M  V30 11 C 0.6913 -0.337 -2.2863 0
M  V30 12 C 0.5457 -1.1103 -0.9839 0
M  V30 13 C -0.584 -0.2033 -3.0874 0
M  V30 14 C -0.6807 -0.7042 -0.1118 0
M  V30 15 C 0.3986 -2.6236 -1.1864 0
M  V30 16 C -1.7359 0.3035 -2.2233 0
M  V30 17 C -0.7188 -1.9026 0.8896 0
M  V30 18 C -1.9489 -0.5666 -0.9835 0
M  V30 19 C -0.3839 0.6345 0.5929 0
M  V30 20 C -0.3805 -3.1362 0.0244 0
M  V30 21 C -1.9084 -2.1534 1.8627 0
M  V30 22 C -2.0503 -1.0214 2.9042 0
M  V30 23 C -3.2625 -2.4641 1.2144 0
M  V30 24 C -2.8913 -1.4204 4.1249 0
M  V30 25 C -2.9126 -0.2981 5.1689 0
M  V30 26 C -3.8448 -0.586 6.3606 0
M  V30 27 C -3.3989 -1.8041 7.1707 0
M  V30 28 C -3.9159 0.6419 7.2719 0
M  V30 29 H 6.9819 2.5743 -2.7901 0
M  V30 30 H 4.3678 3.646 -2.4618 0
M  V30 31 H 5.3962 0.9949 -3.6074 0
M  V30 32 H 4.4079 1.2193 -2.1932 0
M  V30 33 H 6.1768 3.2502 -4.9023 0
M  V30 34 H 5.6331 4.7767 -4.2418 0
M  V30 35 H 4.3033 4.0846 -6.2426 0
M  V30 36 H 3.2914 4.2837 -4.8173 0
M  V30 37 H 1.4308 0.9856 -4.5712 0
M  V30 38 H 3.0146 0.628 -6.64 0
M  V30 39 H 3.5113 2.1912 -7.4944 0
M  V30 40 H 2.7153 0.0149 -1.932 0
M  V30 41 H 1.4508 -0.9608 -0.3747 0
M  V30 42 H -0.4804 0.4776 -3.9359 0
M  V30 43 H -0.8454 -1.1801 -3.5114 0
M  V30 44 H -0.1446 -2.8746 -2.1041 0
M  V30 45 H 1.38 -3.106 -1.2578 0
M  V30 46 H -2.657 0.3106 -2.8186 0
M  V30 47 H -1.5514 1.3433 -1.9275 0
M  V30 48 H 0.1574 -1.7755 1.547 0
M  V30 49 H -2.2954 -1.5515 -1.318 0
M  V30 50 H -2.7626 -0.1256 -0.3977 0
M  V30 51 H 0.4225 0.5291 1.3271 0
M  V30 52 H -0.0689 1.4065 -0.117 0
M  V30 53 H -1.2622 1.024 1.1137 0
M  V30 54 H -1.2681 -3.6704 -0.3239 0
M  V30 55 H 0.2159 -3.8545 0.5983 0
M  V30 56 H -1.6298 -3.0604 2.4198 0
M  V30 57 H -2.5101 -0.1431 2.4388 0
M  V30 58 H -1.0545 -0.7225 3.2542 0
M  V30 59 H -3.9269 -2.95 1.9378 0
M  V30 60 H -3.1796 -3.1493 0.3686 0
M  V30 61 H -3.7741 -1.5594 0.8768 0
M  V30 62 H -2.473 -2.3326 4.564 0
M  V30 63 H -3.9191 -1.6425 3.8178 0
M  V30 64 H -1.8923 -0.1185 5.5313 0
M  V30 65 H -3.2401 0.6289 4.6807 0
M  V30 66 H -4.8553 -0.779 5.9784 0
M  V30 67 H -3.4626 -2.7218 6.5784 0
M  V30 68 H -2.3668 -1.6928 7.5196 0
M  V30 69 H -4.0392 -1.9417 8.049 0
M  V30 70 H -4.2749 1.5168 6.7194 0
M  V30 71 H -2.9329 0.8843 7.69 0
M  V30 72 H -4.6056 0.4694 8.1051 0
M  V30 END ATOM
M  V30 BEGIN BOND
M  V30 1 1 1 2
M  V30 2 1 2 3
M  V30 3 1 2 4
M  V30 4 1 3 5
M  V30 5 1 4 6
M  V30 6 1 5 7
M  V30 7 2 5 8
M  V30 8 2 7 9
M  V30 9 1 8 10
M  V30 10 2 10 11
M  V30 11 1 11 12
M  V30 12 1 11 13
M  V30 13 1 12 14
M  V30 14 1 12 15
M  V30 15 1 13 16
M  V30 16 1 14 17
M  V30 17 1 14 18
M  V30 18 1 14 19
M  V30 19 1 15 20
M  V30 20 1 17 21
M  V30 21 1 21 22
M  V30 22 1 21 23
M  V30 23 1 22 24
M  V30 24 1 24 25
M  V30 25 1 25 26
M  V30 26 1 26 27
M  V30 27 1 26 28
M  V30 28 1 6 7
M  V30 29 1 16 18
M  V30 30 1 17 20
M  V30 31 1 1 29
M  V30 32 1 2 30
M  V30 33 1 3 31
M  V30 34 1 3 32
M  V30 35 1 4 33
M  V30 36 1 4 34
M  V30 37 1 6 35
M  V30 38 1 6 36
M  V30 39 1 8 37
M  V30 40 1 9 38
M  V30 41 1 9 39
M  V30 42 1 10 40
M  V30 43 1 12 41
M  V30 44 1 13 42
M  V30 45 1 13 43
M  V30 46 1 15 44
M  V30 47 1 15 45
M  V30 48 1 16 46
M  V30 49 1 16 47
M  V30 50 1 17 48
M  V30 51 1 18 49
M  V30 52 1 18 50
M  V30 53 1 19 51
M  V30 54 1 19 52
M  V30 55 1 19 53
M  V30 56 1 20 54
M  V30 57 1 20 55
M  V30 58 1 21 56
M  V30 59 1 22 57
M  V30 60 1 22 58
M  V30 61 1 23 59
M  V30 62 1 23 60
M  V30 63 1 23 61
M  V30 64 1 24 62
M  V30 65 1 24 63
M  V30 66 1 25 64
M  V30 67 1 25 65
M  V30 68 1 26 66
M  V30 69 1 27 67
M  V30 70 1 27 68
M  V30 71 1 27 69
M  V30 72 1 28 70
M  V30 73 1 28 71
M  V30 74 1 28 72
M  V30 END BOND
M  V30 END CTAB
M  END
>  <level_0>
5077

>  <index>
5077

>  <NO.>
5078

>  <Name>
cholecalciferol (undefined stereochemistry)

>  <SMILES>
C=C1CCC(O)CC1=CC=C1CCCC2(C)C1CCC2C(C)CCCC(C)C

>  <logBB>


>  <Class>
-1

>  <MW>
384.34

>  <nHBAcc>
1

>  <nHBDon>
1

>  <SLogP>
7.62

>  <TopoPSA>
20.23

>  <MMFF94 Energy>
77.423

$$$$
CC(=CCC1=C(C)C(=O)c2ccccc2C1=O)CCCC(C)CCCC(C)CCCC(C)C
Actelion Java MolfileCreator 2.0

  0  0  0  0  0  0              0 V3000
M  V30 BEGIN CTAB
M  V30 COUNTS 79 80 0 0 0
M  V30 BEGIN ATOM
M  V30 1 O 3.064 -0.0784 -4.0082 0
M  V30 2 C 3.8864 0.2664 -3.1664 0
M  V30 3 C 4.5674 -0.7518 -2.3503 0
M  V30 4 C 4.2148 1.7072 -2.939 0
M  V30 5 C 5.5113 -0.3802 -1.4021 0
M  V30 6 C 4.2594 -2.1077 -2.5344 0
M  V30 7 C 5.1324 2.0641 -2.0174 0
M  V30 8 C 3.4604 2.6726 -3.8306 0
M  V30 9 C 5.845 1.0378 -1.1995 0
M  V30 10 C 6.1538 -1.3608 -0.6323 0
M  V30 11 C 4.8986 -3.0832 -1.7674 0
M  V30 12 C 5.5343 3.4751 -1.6853 0
M  V30 13 C 2.127 3.0492 -3.2347 0
M  V30 14 O 6.6941 1.3595 -0.3751 0
M  V30 15 C 5.8461 -2.7097 -0.8161 0
M  V30 16 C 1.6555 4.2709 -2.9079 0
M  V30 17 C 0.2815 4.5049 -2.2886 0
M  V30 18 C 2.4162 5.5571 -3.1173 0
M  V30 19 C -0.5757 3.2714 -1.9681 0
M  V30 20 C -1.9048 3.6747 -1.3176 0
M  V30 21 C -2.8839 2.4964 -1.1163 0
M  V30 22 C -2.3184 1.44 -0.1437 0
M  V30 23 C -4.2319 3.0484 -0.6372 0
M  V30 24 C -3.2478 0.2393 0.0761 0
M  V30 25 C -2.5587 -0.8431 0.9157 0
M  V30 26 C -3.4875 -2.0138 1.3093 0
M  V30 27 C -2.7386 -2.9373 2.2978 0
M  V30 28 C -3.9765 -2.7812 0.0771 0
M  V30 29 C -3.6276 -4.013 2.9312 0
M  V30 30 C -2.8822 -4.9177 3.9216 0
M  V30 31 C -2.2651 -4.219 5.1481 0
M  V30 32 C -3.3039 -3.4584 5.9727 0
M  V30 33 C -1.5611 -5.254 6.0307 0
M  V30 34 H 3.5205 -2.4082 -3.2756 0
M  V30 35 H 3.2824 2.2214 -4.815 0
M  V30 36 H 4.0821 3.5424 -4.054 0
M  V30 37 H 6.8953 -1.0764 0.1127 0
M  V30 38 H 4.6567 -4.1337 -1.9131 0
M  V30 39 H 6.5876 3.638 -1.9369 0
M  V30 40 H 4.9517 4.231 -2.2138 0
M  V30 41 H 5.3988 3.6687 -0.6153 0
M  V30 42 H 1.4859 2.1818 -3.0788 0
M  V30 43 H 6.346 -3.4676 -0.2171 0
M  V30 44 H -0.2872 5.154 -2.9674 0
M  V30 45 H 0.4266 5.0694 -1.3578 0
M  V30 46 H 3.3455 5.4346 -3.6755 0
M  V30 47 H 2.6638 6.0077 -2.1504 0
M  V30 48 H 1.8031 6.2686 -3.6815 0
M  V30 49 H -0.0182 2.6146 -1.2917 0
M  V30 50 H -0.7815 2.7123 -2.8887 0
M  V30 51 H -1.7059 4.1593 -0.3529 0
M  V30 52 H -2.3874 4.4285 -1.9533 0
M  V30 53 H -3.0474 2.0185 -2.0911 0
M  V30 54 H -1.3678 1.0607 -0.535 0
M  V30 55 H -2.098 1.9097 0.8232 0
M  V30 56 H -4.153 3.465 0.3726 0
M  V30 57 H -4.5879 3.8418 -1.3034 0
M  V30 58 H -5.002 2.2712 -0.6292 0
M  V30 59 H -3.5386 -0.1668 -0.8981 0
M  V30 60 H -4.1604 0.5597 0.5902 0
M  V30 61 H -1.6887 -1.2296 0.3696 0
M  V30 62 H -2.1724 -0.3755 1.8309 0
M  V30 63 H -4.3631 -1.598 1.8248 0
M  V30 64 H -1.8922 -3.4153 1.7888 0
M  V30 65 H -2.3171 -2.3138 3.0946 0
M  V30 66 H -4.6605 -3.5891 0.352 0
M  V30 67 H -4.5299 -2.1304 -0.6061 0
M  V30 68 H -3.1375 -3.2185 -0.4742 0
M  V30 69 H -4.0351 -4.6619 2.1483 0
M  V30 70 H -4.4883 -3.5449 3.422 0
M  V30 71 H -2.0885 -5.4465 3.3777 0
M  V30 72 H -3.5832 -5.6901 4.2649 0
M  V30 73 H -1.5024 -3.5068 4.8126 0
M  V30 74 H -3.7309 -2.626 5.4051 0
M  V30 75 H -4.1225 -4.1159 6.2843 0
M  V30 76 H -2.8492 -3.0347 6.8749 0
M  V30 77 H -0.7872 -5.7847 5.4662 0
M  V30 78 H -2.2689 -5.9956 6.4169 0
M  V30 79 H -1.0767 -4.771 6.8861 0
M  V30 END ATOM
M  V30 BEGIN BOND
M  V30 1 2 1 2
M  V30 2 1 2 3
M  V30 3 1 2 4
M  V30 4 2 3 5
M  V30 5 1 3 6
M  V30 6 2 4 7
M  V30 7 1 4 8
M  V30 8 1 5 9
M  V30 9 1 5 10
M  V30 10 2 6 11
M  V30 11 1 7 12
M  V30 12 1 8 13
M  V30 13 2 9 14
M  V30 14 2 10 15
M  V30 15 2 13 16
M  V30 16 1 16 17
M  V30 17 1 16 18
M  V30 18 1 17 19
M  V30 19 1 19 20
M  V30 20 1 20 21
M  V30 21 1 21 22
M  V30 22 1 21 23
M  V30 23 1 22 24
M  V30 24 1 24 25
M  V30 25 1 25 26
M  V30 26 1 26 27
M  V30 27 1 26 28
M  V30 28 1 27 29
M  V30 29 1 29 30
M  V30 30 1 30 31
M  V30 31 1 31 32
M  V30 32 1 31 33
M  V30 33 1 7 9
M  V30 34 1 11 15
M  V30 35 1 6 34
M  V30 36 1 8 35
M  V30 37 1 8 36
M  V30 38 1 10 37
M  V30 39 1 11 38
M  V30 40 1 12 39
M  V30 41 1 12 40
M  V30 42 1 12 41
M  V30 43 1 13 42
M  V30 44 1 15 43
M  V30 45 1 17 44
M  V30 46 1 17 45
M  V30 47 1 18 46
M  V30 48 1 18 47
M  V30 49 1 18 48
M  V30 50 1 19 49
M  V30 51 1 19 50
M  V30 52 1 20 51
M  V30 53 1 20 52
M  V30 54 1 21 53
M  V30 55 1 22 54
M  V30 56 1 22 55
M  V30 57 1 23 56
M  V30 58 1 23 57
M  V30 59 1 23 58
M  V30 60 1 24 59
M  V30 61 1 24 60
M  V30 62 1 25 61
M  V30 63 1 25 62
M  V30 64 1 26 63
M  V30 65 1 27 64
M  V30 66 1 27 65
M  V30 67 1 28 66
M  V30 68 1 28 67
M  V30 69 1 28 68
M  V30 70 1 29 69
M  V30 71 1 29 70
M  V30 72 1 30 71
M  V30 73 1 30 72
M  V30 74 1 31 73
M  V30 75 1 32 74
M  V30 76 1 32 75
M  V30 77 1 32 76
M  V30 78 1 33 77
M  V30 79 1 33 78
M  V30 80 1 33 79
M  V30 END BOND
M  V30 END CTAB
M  END
>  <level_0>
5079

>  <index>
5079

>  <NO.>
5080

>  <Name>
2-methyl-3-(3,7,11,15-tetramethylhexadec-2-enyl)naphthalene-1,4-dione

>  <SMILES>
CC(=CCC1=C(C)C(=O)c2ccccc2C1=O)CCCC(C)CCCC(C)CCCC(C)C

>  <logBB>


>  <Class>
-1

>  <MW>
450.35

>  <nHBAcc>
2

>  <nHBDon>
0

>  <SLogP>
9.16

>  <TopoPSA>
34.14

>  <MMFF94 Energy>
63.535

$$$$
CC(=O)N(CC(O)CO)c1c(I)c(C(=O)NCC(O)CO)c(I)c(C(=O)NCC(O)CO)c1I
Actelion Java MolfileCreator 2.0

  0  0  0  0  0  0              0 V3000
M  V30 BEGIN CTAB
M  V30 COUNTS 60 60 0 0 0
M  V30 BEGIN ATOM
M  V30 1 I -2.5334 -0.3266 2.5334 0
M  V30 2 C -0.8472 -0.01 1.227 0
M  V30 3 C -0.2168 1.2589 1.1661 0
M  V30 4 C -0.339 -1.0933 0.4811 0
M  V30 5 N -0.7653 2.3694 1.892 0
M  V30 6 C 0.9811 1.3948 0.4224 0
M  V30 7 C 0.8233 -0.9429 -0.2951 0
M  V30 8 C -1.0189 -2.4019 0.5281 0
M  V30 9 C -0.2357 2.6224 3.1574 0
M  V30 10 C -1.9491 3.0407 1.2969 0
M  V30 11 I 2.0688 3.2508 0.4207 0
M  V30 12 C 1.4908 0.296 -0.3036 0
M  V30 13 I 1.5664 -2.5866 -1.4503 0
M  V30 14 O -0.6411 -3.263 1.3098 0
M  V30 15 N -2.0521 -2.5485 -0.3661 0
M  V30 16 O 0.694 1.9654 3.6332 0
M  V30 17 C -0.8656 3.7224 3.9716 0
M  V30 18 C -1.6251 4.1887 0.3186 0
M  V30 19 C 2.703 0.4608 -1.128 0
M  V30 20 C -2.8028 -3.7881 -0.4491 0
M  V30 21 O -1.0561 5.3041 1.0046 0
M  V30 22 C -2.8821 4.6449 -0.4353 0
M  V30 23 O 2.5855 0.7345 -2.3146 0
M  V30 24 N 3.8896 0.2648 -0.4648 0
M  V30 25 C -4.0459 -3.6272 -1.3325 0
M  V30 26 O -3.3967 3.6074 -1.2573 0
M  V30 27 C 5.1747 0.4013 -1.1247 0
M  V30 28 O -3.6542 -3.0937 -2.607 0
M  V30 29 C -4.7933 -4.9516 -1.5232 0
M  V30 30 C 5.69 -0.9162 -1.7254 0
M  V30 31 O -5.294 -5.4666 -0.2981 0
M  V30 32 O 6.8108 -0.634 -2.5693 0
M  V30 33 C 6.1184 -1.9169 -0.6413 0
M  V30 34 O 5.043 -2.3186 0.1981 0
M  V30 35 H -2.5736 3.4274 2.108 0
M  V30 36 H -2.5412 2.2828 0.7732 0
M  V30 37 H -2.2817 -1.8168 -1.0312 0
M  V30 38 H -0.844 4.6688 3.4317 0
M  V30 39 H -1.8927 3.4558 4.2331 0
M  V30 40 H -0.3002 3.8531 4.8996 0
M  V30 41 H -0.8993 3.8394 -0.4205 0
M  V30 42 H -2.1218 -4.5344 -0.8745 0
M  V30 43 H -3.0704 -4.1072 0.5639 0
M  V30 44 H -1.7473 5.7302 1.5406 0
M  V30 45 H -2.6682 5.522 -1.0565 0
M  V30 46 H -3.664 4.9447 0.2712 0
M  V30 47 H 3.8952 -0.0245 0.5084 0
M  V30 48 H -4.7156 -2.8937 -0.8683 0
M  V30 49 H -2.8756 3.6031 -2.0811 0
M  V30 50 H 5.8859 0.794 -0.3892 0
M  V30 51 H 5.0912 1.1582 -1.9139 0
M  V30 52 H -3.0295 -3.7193 -3.0148 0
M  V30 53 H -4.1546 -5.7051 -1.9981 0
M  V30 54 H -5.643 -4.7977 -2.1974 0
M  V30 55 H 4.9017 -1.3566 -2.347 0
M  V30 56 H -4.5772 -5.9446 0.1538 0
M  V30 57 H 6.9707 -1.4221 -3.1167 0
M  V30 58 H 6.9024 -1.4834 -0.0104 0
M  V30 59 H 6.5523 -2.8122 -1.1005 0
M  V30 60 H 4.3924 -2.7804 -0.3604 0
M  V30 END ATOM
M  V30 BEGIN BOND
M  V30 1 1 1 2
M  V30 2 2 2 3
M  V30 3 1 2 4
M  V30 4 1 3 5
M  V30 5 1 3 6
M  V30 6 2 4 7
M  V30 7 1 4 8
M  V30 8 1 5 9
M  V30 9 1 5 10
M  V30 10 1 6 11
M  V30 11 2 6 12
M  V30 12 1 7 13
M  V30 13 2 8 14
M  V30 14 1 8 15
M  V30 15 2 9 16
M  V30 16 1 9 17
M  V30 17 1 10 18
M  V30 18 1 12 19
M  V30 19 1 15 20
M  V30 20 1 18 21
M  V30 21 1 18 22
M  V30 22 2 19 23
M  V30 23 1 19 24
M  V30 24 1 20 25
M  V30 25 1 22 26
M  V30 26 1 24 27
M  V30 27 1 25 28
M  V30 28 1 25 29
M  V30 29 1 27 30
M  V30 30 1 29 31
M  V30 31 1 30 32
M  V30 32 1 30 33
M  V30 33 1 33 34
M  V30 34 1 7 12
M  V30 35 1 10 35
M  V30 36 1 10 36
M  V30 37 1 15 37
M  V30 38 1 17 38
M  V30 39 1 17 39
M  V30 40 1 17 40
M  V30 41 1 18 41
M  V30 42 1 20 42
M  V30 43 1 20 43
M  V30 44 1 21 44
M  V30 45 1 22 45
M  V30 46 1 22 46
M  V30 47 1 24 47
M  V30 48 1 25 48
M  V30 49 1 26 49
M  V30 50 1 27 50
M  V30 51 1 27 51
M  V30 52 1 28 52
M  V30 53 1 29 53
M  V30 54 1 29 54
M  V30 55 1 30 55
M  V30 56 1 31 56
M  V30 57 1 32 57
M  V30 58 1 33 58
M  V30 59 1 33 59
M  V30 60 1 34 60
M  V30 END BOND
M  V30 END CTAB
M  END
>  <level_0>
5085

>  <index>
5085

>  <NO.>
5086

>  <Name>
iohexol

>  <SMILES>
CC(=O)N(CC(O)CO)c1c(I)c(C(=O)NCC(O)CO)c(I)c(C(=O)NCC(O)CO)c1I

>  <logBB>


>  <Class>
-1

>  <MW>
820.88

>  <nHBAcc>
9

>  <nHBDon>
8

>  <SLogP>
-1.63

>  <TopoPSA>
199.89

>  <MMFF94 Energy>
123.61

$$$$
CC(=O)N=c1sc(S(N)(=O)=O)nn1C
Actelion Java MolfileCreator 2.0

  0  0  0  0  0  0              0 V3000
M  V30 BEGIN CTAB
M  V30 COUNTS 22 22 0 0 0
M  V30 BEGIN ATOM
M  V30 1 S -0.6682 -0.2505 -3.4283 0
M  V30 2 O 0.5763 -0.7018 -4.0106 0
M  V30 3 O -1.4611 0.8171 -3.9967 0
M  V30 4 N -1.6906 -1.5989 -3.3752 0
M  V30 5 C -0.2985 0.1909 -1.7403 0
M  V30 6 S -0.0954 -1.0385 -0.4905 0
M  V30 7 N -0.172 1.4337 -1.3689 0
M  V30 8 C 0.1478 0.2669 0.6679 0
M  V30 9 N 0.0978 1.4589 -0.0228 0
M  V30 10 N 0.3573 0.1362 1.9369 0
M  V30 11 C 0.2185 2.7525 0.6191 0
M  V30 12 C 0.3204 -1.1168 2.4867 0
M  V30 13 O -0.6754 -1.8321 2.5091 0
M  V30 14 C 1.6083 -1.5258 3.1484 0
M  V30 15 H -1.2988 -2.3958 -2.8745 0
M  V30 16 H -2.6551 -1.3562 -3.151 0
M  V30 17 H 1.1023 2.783 1.2646 0
M  V30 18 H 0.3186 3.5551 -0.1194 0
M  V30 19 H -0.668 2.9574 1.2275 0
M  V30 20 H 1.7651 -0.9246 4.0477 0
M  V30 21 H 1.5597 -2.5825 3.4253 0
M  V30 22 H 2.4429 -1.3861 2.4559 0
M  V30 END ATOM
M  V30 BEGIN BOND
M  V30 1 2 1 2
M  V30 2 2 1 3
M  V30 3 1 1 4
M  V30 4 1 1 5
M  V30 5 1 5 6
M  V30 6 2 5 7
M  V30 7 1 6 8
M  V30 8 1 7 9
M  V30 9 2 8 10
M  V30 10 1 9 11
M  V30 11 1 10 12
M  V30 12 2 12 13
M  V30 13 1 12 14
M  V30 14 1 8 9
M  V30 15 1 4 15
M  V30 16 1 4 16
M  V30 17 1 11 17
M  V30 18 1 11 18
M  V30 19 1 11 19
M  V30 20 1 14 20
M  V30 21 1 14 21
M  V30 22 1 14 22
M  V30 END BOND
M  V30 END CTAB
M  END
>  <level_0>
5087

>  <index>
5087

>  <NO.>
5088

>  <Name>
methazolamide

>  <SMILES>
CC(=O)N=c1sc(S(N)(=O)=O)nn1C

>  <logBB>


>  <Class>
-1

>  <MW>
236.0

>  <nHBAcc>
5

>  <nHBDon>
1

>  <SLogP>
-1.42

>  <TopoPSA>
107.41

>  <MMFF94 Energy>
2.2301

$$$$
CC(=O)NC(CS)C(=O)O
Actelion Java MolfileCreator 2.0

  0  0  0  0  0  0              0 V3000
M  V30 BEGIN CTAB
M  V30 COUNTS 19 18 0 0 0
M  V30 BEGIN ATOM
M  V30 1 S -0.7165 -1.8318 2.3101 0
M  V30 2 C -0.6198 -1.8604 0.4892 0
M  V30 3 C 0.2796 -0.7574 -0.0736 0 CFG=2
M  V30 4 N -0.1713 0.5883 0.2865 0
M  V30 5 C 0.2636 -0.8892 -1.5943 0
M  V30 6 C 0.6821 1.6618 0.2243 0
M  V30 7 O -0.5504 -0.3943 -2.3602 0
M  V30 8 O 1.2285 -1.7069 -2.0634 0
M  V30 9 O 1.8479 1.5742 -0.1444 0
M  V30 10 C 0.0495 2.9708 0.6085 0
M  V30 11 H -1.4822 -2.9253 2.4412 0
M  V30 12 H -0.2518 -2.8463 0.1845 0
M  V30 13 H -1.6411 -1.7627 0.1032 0
M  V30 14 H 1.3138 -0.875 0.2729 0
M  V30 15 H -1.1464 0.7341 0.514 0
M  V30 16 H 1.1355 -1.6549 -3.0382 0
M  V30 17 H -0.3859 3.4336 -0.2809 0
M  V30 18 H 0.8113 3.6328 1.0292 0
M  V30 19 H -0.733 2.8231 1.3582 0
M  V30 END ATOM
M  V30 BEGIN BOND
M  V30 1 1 1 2
M  V30 2 1 2 3
M  V30 3 1 3 4
M  V30 4 1 3 5
M  V30 5 1 4 6
M  V30 6 2 5 7
M  V30 7 1 5 8
M  V30 8 2 6 9
M  V30 9 1 6 10
M  V30 10 1 1 11
M  V30 11 1 2 12
M  V30 12 1 2 13
M  V30 13 1 3 14
M  V30 14 1 4 15
M  V30 15 1 8 16
M  V30 16 1 10 17
M  V30 17 1 10 18
M  V30 18 1 10 19
M  V30 END BOND
M  V30 BEGIN COLLECTION
M  V30 MDLV30/STERAC1 ATOMS=(1 3)
M  V30 END COLLECTION
M  V30 END CTAB
M  END
>  <level_0>
5088

>  <index>
5088

>  <NO.>
5089

>  <Name>
acetylcysteine

>  <SMILES>
CC(=O)NC(CS)C(=O)O

>  <logBB>


>  <Class>
-1

>  <MW>
163.03

>  <nHBAcc>
3

>  <nHBDon>
3

>  <SLogP>
-0.49

>  <TopoPSA>
66.4

>  <MMFF94 Energy>
-3.5176

$$$$
CC(=O)NO
Actelion Java MolfileCreator 2.0

  0  0  0  0  0  0              0 V3000
M  V30 BEGIN CTAB
M  V30 COUNTS 10 9 0 0 0
M  V30 BEGIN ATOM
M  V30 1 O -1.4991 -0.3746 0.5994 0
M  V30 2 C -0.4089 -0.0321 0.1467 0
M  V30 3 N 0.7255 -0.7739 0.337 0
M  V30 4 C -0.2149 1.224 -0.6536 0
M  V30 5 O 0.587 -1.963 1.0845 0
M  V30 6 H 1.6499 -0.5456 -0.0094 0
M  V30 7 H -0.8443 1.1788 -1.5464 0
M  V30 8 H 0.8259 1.3491 -0.9639 0
M  V30 9 H -0.5049 2.0839 -0.0437 0
M  V30 10 H -0.3717 -1.9623 1.3009 0
M  V30 END ATOM
M  V30 BEGIN BOND
M  V30 1 2 1 2
M  V30 2 1 2 3
M  V30 3 1 2 4
M  V30 4 1 3 5
M  V30 5 1 3 6
M  V30 6 1 4 7
M  V30 7 1 4 8
M  V30 8 1 4 9
M  V30 9 1 5 10
M  V30 END BOND
M  V30 END CTAB
M  END
>  <level_0>
5089

>  <index>
5089

>  <NO.>
5090

>  <Name>
acetohydroxamic acid

>  <SMILES>
CC(=O)NO

>  <logBB>


>  <Class>
-1

>  <MW>
75.03

>  <nHBAcc>
2

>  <nHBDon>
2

>  <SLogP>
-0.49

>  <TopoPSA>
49.33

>  <MMFF94 Energy>
19.05

$$$$
CC(=O)OCC1OC(n2ncc(=O)[nH]c2=O)C(OC(C)=O)C1OC(C)=O
Actelion Java MolfileCreator 2.0

  0  0  0  0  0  0              0 V3000
M  V30 BEGIN CTAB
M  V30 COUNTS 43 44 0 0 0
M  V30 BEGIN ATOM
M  V30 1 O 3.0423 -1.12 -2.4012 0
M  V30 2 C 3.2527 -1.0533 -1.1915 0
M  V30 3 N 2.2467 -0.9325 -0.2396 0
M  V30 4 N 4.5325 -1.0843 -0.7219 0
M  V30 5 N 2.4791 -0.7847 1.1183 0
M  V30 6 C 0.8595 -0.9085 -0.7153 0
M  V30 7 C 4.8654 -0.9818 0.5924 0
M  V30 8 C 3.7066 -0.815 1.5223 0
M  V30 9 O -0.0357 -1.2878 0.3442 0
M  V30 10 C 0.4218 0.4683 -1.2269 0
M  V30 11 O 6.0015 -1.0048 1.0367 0
M  V30 12 C -0.8127 -0.1343 0.7358 0
M  V30 13 O -0.5376 0.2791 -2.2934 0
M  V30 14 C -0.2432 1.0819 -0.0049 0
M  V30 15 C -2.28 -0.3896 0.3717 0
M  V30 16 C -0.8053 1.3897 -3.0326 0
M  V30 17 O 0.7757 1.7452 0.7733 0
M  V30 18 O -2.8007 -1.4199 1.2302 0
M  V30 19 O -0.3377 2.4987 -2.8222 0
M  V30 20 C -1.7728 1.0627 -4.1273 0
M  V30 21 C 0.3097 2.4919 1.8105 0
M  V30 22 C -4.0583 -1.8269 0.9124 0
M  V30 23 O -0.8687 2.6147 2.1119 0
M  V30 24 C 1.4496 3.1337 2.5383 0
M  V30 25 O -4.7357 -1.3839 -0.0045 0
M  V30 26 C -4.5036 -2.9035 1.8535 0
M  V30 27 H 5.273 -1.1833 -1.3979 0
M  V30 28 H 0.7606 -1.6648 -1.5029 0
M  V30 29 H 3.9661 -0.713 2.587 0
M  V30 30 H 1.2766 1.0439 -1.6023 0
M  V30 31 H -0.7129 -0.052 1.8232 0
M  V30 32 H -1.0156 1.8129 -0.2703 0
M  V30 33 H -2.3644 -0.7225 -0.6687 0
M  V30 34 H -2.872 0.5197 0.5255 0
M  V30 35 H -1.3564 0.2826 -4.7694 0
M  V30 36 H -2.7237 0.7399 -3.696 0
M  V30 37 H -1.9477 1.9553 -4.7348 0
M  V30 38 H 2.1056 2.3632 2.951 0
M  V30 39 H 2.0026 3.7867 1.8586 0
M  V30 40 H 1.0592 3.7386 3.3618 0
M  V30 41 H -3.8329 -3.7629 1.7773 0
M  V30 42 H -4.5215 -2.518 2.876 0
M  V30 43 H -5.5137 -3.2251 1.5843 0
M  V30 END ATOM
M  V30 BEGIN BOND
M  V30 1 2 1 2
M  V30 2 1 2 3
M  V30 3 1 2 4
M  V30 4 1 3 5
M  V30 5 1 3 6
M  V30 6 1 4 7
M  V30 7 2 5 8
M  V30 8 1 6 9
M  V30 9 1 6 10
M  V30 10 2 7 11
M  V30 11 1 9 12
M  V30 12 1 10 13
M  V30 13 1 10 14
M  V30 14 1 12 15
M  V30 15 1 13 16
M  V30 16 1 14 17
M  V30 17 1 15 18
M  V30 18 2 16 19
M  V30 19 1 16 20
M  V30 20 1 17 21
M  V30 21 1 18 22
M  V30 22 2 21 23
M  V30 23 1 21 24
M  V30 24 2 22 25
M  V30 25 1 22 26
M  V30 26 1 7 8
M  V30 27 1 12 14
M  V30 28 1 4 27
M  V30 29 1 6 28
M  V30 30 1 8 29
M  V30 31 1 10 30
M  V30 32 1 12 31
M  V30 33 1 14 32
M  V30 34 1 15 33
M  V30 35 1 15 34
M  V30 36 1 20 35
M  V30 37 1 20 36
M  V30 38 1 20 37
M  V30 39 1 24 38
M  V30 40 1 24 39
M  V30 41 1 24 40
M  V30 42 1 26 41
M  V30 43 1 26 42
M  V30 44 1 26 43
M  V30 END BOND
M  V30 END CTAB
M  END
>  <level_0>
5092

>  <index>
5092

>  <NO.>
5093

>  <Name>
triacetyl 6-azauridine

>  <SMILES>
CC(=O)OCC1OC(n2ncc(=O)[nH]c2=O)C(OC(C)=O)C1OC(C)=O

>  <logBB>


>  <Class>
-1

>  <MW>
371.1

>  <nHBAcc>
10

>  <nHBDon>
1

>  <SLogP>
-1.74

>  <TopoPSA>
155.88

>  <MMFF94 Energy>
1.0174

$$$$
CC(=O)O[C@H]1C[C@H](O[C@H]2[C@@H](O)C[C@H](O[C@H]3[C@@H](O)C[C@H](O[C@H]4CC[C@]5(C)[C@H]6CC[C@]7(C)[C@@H](C8=CC(=O)OC8)CC[C@]7(O)[C@@H]6CC[C@@H]5C4)O[C@@H]3C)O[C@@H]2C)O[C@H](C)[C@H]1O
Actelion Java MolfileCreator 2.0

  0  0  0  0  0  0              0 V3000
M  V30 BEGIN CTAB
M  V30 COUNTS 123 130 0 0 0
M  V30 BEGIN ATOM
M  V30 1 O 3.7796 5.8752 -13.3983 0
M  V30 2 C 3.6712 5.0251 -12.534 0
M  V30 3 O 4.3444 3.8476 -12.4817 0
M  V30 4 C 2.7721 5.1132 -11.3872 0
M  V30 5 C 3.9549 3.1338 -11.3037 0
M  V30 6 C 2.933 4.0022 -10.6666 0
M  V30 7 C 2.1604 3.6637 -9.416 0 CFG=2
M  V30 8 C 2.9238 3.5869 -8.0449 0 CFG=2
M  V30 9 C 1.4147 2.314 -9.543 0
M  V30 10 C 3.1216 2.0619 -7.8229 0 CFG=1
M  V30 11 C 1.9942 4.1691 -6.9423 0
M  V30 12 C 4.2422 4.386 -8.0325 0
M  V30 13 C 1.7995 1.4657 -8.3282 0
M  V30 14 O 4.1589 1.6036 -8.7012 0
M  V30 15 C 3.5026 1.6836 -6.3613 0 CFG=1
M  V30 16 C 2.4412 3.8341 -5.5217 0
M  V30 17 C 2.5587 2.3156 -5.2952 0 CFG=2
M  V30 18 C 3.6104 0.1571 -6.1696 0
M  V30 19 C 2.9598 1.9286 -3.8176 0 CFG=2
M  V30 20 C 3.9802 -0.2365 -4.7436 0
M  V30 21 C 3.0495 0.3747 -3.6872 0 CFG=2
M  V30 22 C 1.9332 2.4463 -2.767 0
M  V30 23 C 4.324 2.5559 -3.4266 0
M  V30 24 C 1.6625 -0.3106 -3.7316 0
M  V30 25 C 0.5667 1.767 -2.8414 0
M  V30 26 C 0.6824 0.2494 -2.6981 0 CFG=2
M  V30 27 O 1.184 -0.0816 -1.3995 0
M  V30 28 C 0.1709 -0.5325 -0.4982 0 CFG=2
M  V30 29 O -0.7731 0.5046 -0.2429 0
M  V30 30 C 0.8697 -0.9159 0.8009 0
M  V30 31 C -1.8237 0.069 0.6255 0 CFG=1
M  V30 32 C -0.138 -1.3428 1.8567 0 CFG=1
M  V30 33 C -1.2702 -0.3068 2.0157 0 CFG=2
M  V30 34 C -2.8351 1.209 0.7157 0
M  V30 35 O -0.6816 -2.6164 1.4935 0
M  V30 36 O -2.363 -0.7807 2.818 0
M  V30 37 C -2.0187 -1.102 4.1627 0 CFG=2
M  V30 38 O -1.5447 -2.4482 4.1958 0
M  V30 39 C -3.2912 -1.0011 4.9945 0
M  V30 40 C -1.1443 -2.8367 5.5154 0 CFG=1
M  V30 41 C -3.0349 -1.4408 6.428 0 CFG=1
M  V30 42 C -2.3463 -2.8208 6.4841 0 CFG=2
M  V30 43 C -0.5305 -4.2298 5.4061 0
M  V30 44 O -2.2209 -0.4569 7.0729 0
M  V30 45 O -1.8669 -3.1658 7.7923 0
M  V30 46 C -2.8731 -3.2672 8.7943 0 CFG=2
M  V30 47 O -3.1399 -1.9649 9.3075 0
M  V30 48 C -2.3121 -4.1463 9.9086 0
M  V30 49 C -4.1545 -1.977 10.3201 0 CFG=1
M  V30 50 C -3.2885 -4.2304 11.0767 0 CFG=1
M  V30 51 C -3.7036 -2.8144 11.5308 0 CFG=2
M  V30 52 C -4.4244 -0.5262 10.7072 0
M  V30 53 O -4.4333 -4.9946 10.6292 0
M  V30 54 O -4.7381 -2.8415 12.5135 0
M  V30 55 C -5.1427 -5.6226 11.6092 0
M  V30 56 O -4.885 -5.5663 12.8042 0
M  V30 57 C -6.29 -6.3793 11.0162 0
M  V30 58 H 2.1127 5.9461 -11.2213 0
M  V30 59 H 3.5578 2.1624 -11.6085 0
M  V30 60 H 4.8472 2.9903 -10.693 0
M  V30 61 H 1.3889 4.4432 -9.3241 0
M  V30 62 H 1.661 1.7781 -10.4654 0
M  V30 63 H 0.3296 2.4713 -9.5598 0
M  V30 64 H 1.9342 5.2605 -7.0477 0
M  V30 65 H 0.966 3.8063 -7.07 0
M  V30 66 H 4.7436 4.3299 -7.0616 0
M  V30 67 H 4.0577 5.4451 -8.2454 0
M  V30 68 H 4.966 4.0241 -8.7657 0
M  V30 69 H 1.8961 0.4155 -8.6244 0
M  V30 70 H 1.0029 1.5259 -7.5803 0
M  V30 71 H 4.1657 0.6314 -8.6914 0
M  V30 72 H 4.5143 2.0792 -6.2009 0
M  V30 73 H 1.7016 4.2648 -4.8391 0
M  V30 74 H 3.3897 4.3355 -5.3079 0
M  V30 75 H 1.5584 1.9042 -5.4736 0
M  V30 76 H 4.3757 -0.2556 -6.8362 0
M  V30 77 H 2.6681 -0.3277 -6.4465 0
M  V30 78 H 3.9736 -1.3302 -4.6591 0
M  V30 79 H 5.0142 0.0699 -4.5455 0
M  V30 80 H 3.4866 0.137 -2.7066 0
M  V30 81 H 2.339 2.2817 -1.7587 0
M  V30 82 H 1.801 3.5306 -2.8449 0
M  V30 83 H 5.1225 2.3161 -4.1325 0
M  V30 84 H 4.2596 3.6472 -3.3597 0
M  V30 85 H 4.6491 2.1984 -2.4422 0
M  V30 86 H 1.7996 -1.3835 -3.5445 0
M  V30 87 H 1.2124 -0.2183 -4.7257 0
M  V30 88 H -0.0599 2.176 -2.0414 0
M  V30 89 H 0.0719 2.0161 -3.7865 0
M  V30 90 H -0.2982 -0.2144 -2.8626 0
M  V30 91 H -0.3318 -1.4037 -0.9383 0
M  V30 92 H 1.4386 -0.0544 1.1738 0
M  V30 93 H 1.593 -1.7162 0.604 0
M  V30 94 H -2.3364 -0.7894 0.1715 0
M  V30 95 H 0.389 -1.4846 2.8065 0
M  V30 96 H -0.8511 0.597 2.4786 0
M  V30 97 H -3.7015 0.9358 1.3252 0
M  V30 98 H -2.3745 2.1073 1.1416 0
M  V30 99 H -3.1885 1.4827 -0.2844 0
M  V30 100 H -1.2776 -2.8543 2.237 0
M  V30 101 H -1.2501 -0.4117 4.5339 0
M  V30 102 H -4.0678 -1.6396 4.5541 0
M  V30 103 H -3.6663 0.0288 4.9621 0
M  V30 104 H -0.3571 -2.1575 5.869 0
M  V30 105 H -3.9903 -1.4644 6.9633 0
M  V30 106 H -3.0675 -3.5811 6.1549 0
M  V30 107 H -0.1496 -4.5822 6.3691 0
M  V30 108 H -1.2648 -4.9521 5.0324 0
M  V30 109 H 0.2965 -4.2243 4.6878 0
M  V30 110 H -2.1536 -0.7559 8.006 0
M  V30 111 H -3.7848 -3.7067 8.3695 0
M  V30 112 H -1.3605 -3.7278 10.261 0
M  V30 113 H -2.0949 -5.1443 9.5093 0
M  V30 114 H -5.0818 -2.384 9.8959 0
M  V30 115 H -2.8018 -4.765 11.9022 0
M  V30 116 H -2.8262 -2.3389 11.9872 0
M  V30 117 H -4.7084 0.0555 9.8233 0
M  V30 118 H -5.2271 -0.4467 11.4461 0
M  V30 119 H -3.5226 -0.056 11.1147 0
M  V30 120 H -4.5945 -3.6182 13.0936 0
M  V30 121 H -6.9743 -5.6855 10.5217 0
M  V30 122 H -5.9169 -7.1231 10.3079 0
M  V30 123 H -6.8316 -6.8982 11.8121 0
M  V30 END ATOM
M  V30 BEGIN BOND
M  V30 1 2 1 2
M  V30 2 1 2 3
M  V30 3 1 2 4
M  V30 4 1 3 5
M  V30 5 2 4 6
M  V30 6 1 6 7
M  V30 7 1 7 8
M  V30 8 1 7 9
M  V30 9 1 8 10
M  V30 10 1 8 11
M  V30 11 1 8 12
M  V30 12 1 9 13
M  V30 13 1 10 14
M  V30 14 1 10 15
M  V30 15 1 11 16
M  V30 16 1 15 17
M  V30 17 1 15 18
M  V30 18 1 17 19
M  V30 19 1 18 20
M  V30 20 1 19 21
M  V30 21 1 19 22
M  V30 22 1 19 23
M  V30 23 1 21 24
M  V30 24 1 22 25
M  V30 25 1 24 26
M  V30 26 1 26 27
M  V30 27 1 27 28
M  V30 28 1 28 29
M  V30 29 1 28 30
M  V30 30 1 29 31
M  V30 31 1 30 32
M  V30 32 1 31 33
M  V30 33 1 31 34
M  V30 34 1 32 35
M  V30 35 1 33 36
M  V30 36 1 36 37
M  V30 37 1 37 38
M  V30 38 1 37 39
M  V30 39 1 38 40
M  V30 40 1 39 41
M  V30 41 1 40 42
M  V30 42 1 40 43
M  V30 43 1 41 44
M  V30 44 1 42 45
M  V30 45 1 45 46
M  V30 46 1 46 47
M  V30 47 1 46 48
M  V30 48 1 47 49
M  V30 49 1 48 50
M  V30 50 1 49 51
M  V30 51 1 49 52
M  V30 52 1 50 53
M  V30 53 1 51 54
M  V30 54 1 53 55
M  V30 55 2 55 56
M  V30 56 1 55 57
M  V30 57 1 5 6
M  V30 58 1 10 13
M  V30 59 1 16 17
M  V30 60 1 20 21
M  V30 61 1 25 26
M  V30 62 1 32 33
M  V30 63 1 41 42
M  V30 64 1 50 51
M  V30 65 1 4 58
M  V30 66 1 5 59
M  V30 67 1 5 60
M  V30 68 1 7 61
M  V30 69 1 9 62
M  V30 70 1 9 63
M  V30 71 1 11 64
M  V30 72 1 11 65
M  V30 73 1 12 66
M  V30 74 1 12 67
M  V30 75 1 12 68
M  V30 76 1 13 69
M  V30 77 1 13 70
M  V30 78 1 14 71
M  V30 79 1 15 72
M  V30 80 1 16 73
M  V30 81 1 16 74
M  V30 82 1 17 75
M  V30 83 1 18 76
M  V30 84 1 18 77
M  V30 85 1 20 78
M  V30 86 1 20 79
M  V30 87 1 21 80
M  V30 88 1 22 81
M  V30 89 1 22 82
M  V30 90 1 23 83
M  V30 91 1 23 84
M  V30 92 1 23 85
M  V30 93 1 24 86
M  V30 94 1 24 87
M  V30 95 1 25 88
M  V30 96 1 25 89
M  V30 97 1 26 90
M  V30 98 1 28 91
M  V30 99 1 30 92
M  V30 100 1 30 93
M  V30 101 1 31 94
M  V30 102 1 32 95
M  V30 103 1 33 96
M  V30 104 1 34 97
M  V30 105 1 34 98
M  V30 106 1 34 99
M  V30 107 1 35 100
M  V30 108 1 37 101
M  V30 109 1 39 102
M  V30 110 1 39 103
M  V30 111 1 40 104
M  V30 112 1 41 105
M  V30 113 1 42 106
M  V30 114 1 43 107
M  V30 115 1 43 108
M  V30 116 1 43 109
M  V30 117 1 44 110
M  V30 118 1 46 111
M  V30 119 1 48 112
M  V30 120 1 48 113
M  V30 121 1 49 114
M  V30 122 1 50 115
M  V30 123 1 51 116
M  V30 124 1 52 117
M  V30 125 1 52 118
M  V30 126 1 52 119
M  V30 127 1 54 120
M  V30 128 1 57 121
M  V30 129 1 57 122
M  V30 130 1 57 123
M  V30 END BOND
M  V30 BEGIN COLLECTION
M  V30 MDLV30/STEABS ATOMS=(20 7 8 10 15 17 19 21 26 28 31 32 33 37 40 41 42 46 49 50 51)
M  V30 END COLLECTION
M  V30 END CTAB
M  END
>  <level_0>
5093

>  <index>
5093

>  <NO.>
5094

>  <Name>
acetyldigitoxin

>  <SMILES>
CC(=O)O[C@H]1C[C@H](O[C@H]2[C@@H](O)C[C@H](O[C@H]3[C@@H](O)C[C@H](O[C@H]4CC[C@]5(C)[C@H]6CC[C@]7(C)[C@@H](C8=CC(=O)OC8)CC[C@]7(O)[C@@H]6CC[C@@H]5C4)O[C@@H]3C)O[C@@H]2C)O[C@H](C)[C@H]1O

>  <logBB>


>  <Class>
-1

>  <MW>
806.45

>  <nHBAcc>
14

>  <nHBDon>
4

>  <SLogP>
3.82

>  <TopoPSA>
188.9

>  <MMFF94 Energy>
128.28

$$$$
CC(=O)Oc1ccc(C(=C2CCCCC2)c2ccc(OC(C)=O)cc2)cc1
Actelion Java MolfileCreator 2.0

  0  0  0  0  0  0              0 V3000
M  V30 BEGIN CTAB
M  V30 COUNTS 51 53 0 0 0
M  V30 BEGIN ATOM
M  V30 1 O 0.7962 -4.1457 -3.9061 0
M  V30 2 C 1.3136 -4.9436 -3.1372 0
M  V30 3 O 1.629 -4.7381 -1.7972 0
M  V30 4 C 1.7124 -6.3398 -3.5132 0
M  V30 5 C 1.3328 -3.4764 -1.2621 0
M  V30 6 C 1.8549 -2.3063 -1.8107 0
M  V30 7 C 0.5635 -3.4453 -0.1003 0
M  V30 8 C 1.5692 -1.0817 -1.2047 0
M  V30 9 C 0.2832 -2.2193 0.5052 0
M  V30 10 C 0.7858 -1.0306 -0.0411 0
M  V30 11 C 0.4695 0.2723 0.5946 0
M  V30 12 C -0.8817 0.8613 0.4243 0
M  V30 13 C 1.4129 0.9248 1.3246 0
M  V30 14 C -1.2419 1.4513 -0.795 0
M  V30 15 C -1.8148 0.8142 1.4717 0
M  V30 16 C 2.8048 0.3829 1.6162 0
M  V30 17 C 1.2209 2.2996 1.9492 0
M  V30 18 C -2.5176 1.9915 -0.9653 0
M  V30 19 C -3.0903 1.3569 1.3062 0
M  V30 20 C 3.8804 1.3432 1.1082 0
M  V30 21 C 2.2912 3.275 1.4533 0
M  V30 22 C -3.4359 1.9244 0.081 0
M  V30 23 C 3.703 2.7437 1.6913 0
M  V30 24 O -4.6831 2.5307 -0.1254 0
M  V30 25 C -5.8097 1.7439 0.0963 0
M  V30 26 O -5.8365 0.5723 0.4461 0
M  V30 27 C -7.0313 2.5727 -0.1697 0
M  V30 28 H 2.7886 -6.4682 -3.3736 0
M  V30 29 H 1.156 -7.0599 -2.9081 0
M  V30 30 H 1.4752 -6.5126 -4.5668 0
M  V30 31 H 2.469 -2.3351 -2.7054 0
M  V30 32 H 0.1787 -4.3646 0.3303 0
M  V30 33 H 1.9606 -0.1656 -1.6402 0
M  V30 34 H -0.3281 -2.1934 1.4038 0
M  V30 35 H -0.5296 1.4916 -1.6152 0
M  V30 36 H -1.5481 0.3556 2.4207 0
M  V30 37 H 2.9852 -0.6063 1.1877 0
M  V30 38 H 2.9077 0.2588 2.7023 0
M  V30 39 H 0.2424 2.7385 1.7366 0
M  V30 40 H 1.2845 2.2026 3.0405 0
M  V30 41 H -2.7902 2.4544 -1.9087 0
M  V30 42 H -3.8017 1.3225 2.1256 0
M  V30 43 H 3.8419 1.3951 0.0128 0
M  V30 44 H 4.8716 0.9597 1.3756 0
M  V30 45 H 2.1486 3.461 0.3812 0
M  V30 46 H 2.1733 4.2386 1.9622 0
M  V30 47 H 4.4359 3.4261 1.2466 0
M  V30 48 H 3.904 2.7168 2.7695 0
M  V30 49 H -7.0527 3.4298 0.508 0
M  V30 50 H -7.0348 2.9039 -1.2111 0
M  V30 51 H -7.925 1.9673 0.0066 0
M  V30 END ATOM
M  V30 BEGIN BOND
M  V30 1 2 1 2
M  V30 2 1 2 3
M  V30 3 1 2 4
M  V30 4 1 3 5
M  V30 5 2 5 6
M  V30 6 1 5 7
M  V30 7 1 6 8
M  V30 8 2 7 9
M  V30 9 2 8 10
M  V30 10 1 10 11
M  V30 11 1 11 12
M  V30 12 2 11 13
M  V30 13 2 12 14
M  V30 14 1 12 15
M  V30 15 1 13 16
M  V30 16 1 13 17
M  V30 17 1 14 18
M  V30 18 2 15 19
M  V30 19 1 16 20
M  V30 20 1 17 21
M  V30 21 2 18 22
M  V30 22 1 20 23
M  V30 23 1 22 24
M  V30 24 1 24 25
M  V30 25 2 25 26
M  V30 26 1 25 27
M  V30 27 1 9 10
M  V30 28 1 19 22
M  V30 29 1 21 23
M  V30 30 1 4 28
M  V30 31 1 4 29
M  V30 32 1 4 30
M  V30 33 1 6 31
M  V30 34 1 7 32
M  V30 35 1 8 33
M  V30 36 1 9 34
M  V30 37 1 14 35
M  V30 38 1 15 36
M  V30 39 1 16 37
M  V30 40 1 16 38
M  V30 41 1 17 39
M  V30 42 1 17 40
M  V30 43 1 18 41
M  V30 44 1 19 42
M  V30 45 1 20 43
M  V30 46 1 20 44
M  V30 47 1 21 45
M  V30 48 1 21 46
M  V30 49 1 23 47
M  V30 50 1 23 48
M  V30 51 1 27 49
M  V30 52 1 27 50
M  V30 53 1 27 51
M  V30 END BOND
M  V30 END CTAB
M  END
>  <level_0>
5095

>  <index>
5095

>  <NO.>
5096

>  <Name>
cyclofenil

>  <SMILES>
CC(=O)Oc1ccc(C(=C2CCCCC2)c2ccc(OC(C)=O)cc2)cc1

>  <logBB>


>  <Class>
-1

>  <MW>
364.17

>  <nHBAcc>
4

>  <nHBDon>
0

>  <SLogP>
5.3

>  <TopoPSA>
52.6

>  <MMFF94 Energy>
69.388

$$$$
CC(C)(C)C(=O)OCOP(=O)(COCCn1cnc2c(N)ncnc21)OCOC(=O)C(C)(C)C
Actelion Java MolfileCreator 2.0

  0  0  0  0  0  0              0 V3000
M  V30 BEGIN CTAB
M  V30 COUNTS 66 67 0 0 0
M  V30 BEGIN ATOM
M  V30 1 P 0.7167 -0.637 0.3981 0
M  V30 2 O 1.1468 -2.0745 0.3855 0
M  V30 3 O -0.5705 -0.3346 1.3188 0
M  V30 4 O 1.8195 0.3314 1.0738 0
M  V30 5 C 0.3989 0.095 -1.2206 0
M  V30 6 C -1.824 -0.8484 0.9236 0
M  V30 7 C 3.1633 0.0842 0.7112 0
M  V30 8 O -0.1372 1.4078 -1.0179 0
M  V30 9 O -1.9149 -2.2582 1.119 0
M  V30 10 O 3.9767 1.1568 1.1847 0
M  V30 11 C -0.6685 1.9707 -2.2194 0
M  V30 12 C -1.8013 -3.0146 -0.0053 0
M  V30 13 C 5.2766 1.0659 0.7948 0
M  V30 14 C -1.5362 3.1685 -1.8465 0
M  V30 15 O -1.6457 -2.5531 -1.1298 0
M  V30 16 C -1.9252 -4.5056 0.3174 0
M  V30 17 O 5.7172 0.1765 0.0784 0
M  V30 18 C 6.1022 2.2239 1.361 0
M  V30 19 N -2.7281 2.7447 -1.1369 0
M  V30 20 C -1.633 -5.3277 -0.9477 0
M  V30 21 C -0.9178 -4.8986 1.4065 0
M  V30 22 C -3.3568 -4.7936 0.7873 0
M  V30 23 C 7.5653 2.0763 0.9143 0
M  V30 24 C 5.5482 3.5524 0.8294 0
M  V30 25 C 6.0429 2.1943 2.8941 0
M  V30 26 C -3.8794 2.2826 -1.709 0
M  V30 27 C -2.8752 2.6671 0.2222 0
M  V30 28 N -4.1584 2.1687 -3.0175 0
M  V30 29 C -4.6909 1.9363 -0.6408 0
M  V30 30 N -4.05 2.1758 0.5603 0
M  V30 31 C -5.3954 1.6603 -3.1963 0
M  V30 32 C -5.9569 1.4153 -0.9558 0
M  V30 33 N -6.2942 1.2846 -2.2596 0
M  V30 34 N -6.8689 1.027 -0.0016 0
M  V30 35 H -0.3186 -0.5231 -1.7645 0
M  V30 36 H 1.3211 0.163 -1.8048 0
M  V30 37 H -2.0789 -0.5272 -0.0915 0
M  V30 38 H -2.5751 -0.3968 1.5793 0
M  V30 39 H 3.2379 0.0127 -0.3791 0
M  V30 40 H 3.4879 -0.8512 1.1792 0
M  V30 41 H -1.2568 1.2249 -2.7668 0
M  V30 42 H 0.1673 2.2933 -2.849 0
M  V30 43 H -0.9949 3.859 -1.1899 0
M  V30 44 H -1.856 3.7159 -2.7392 0
M  V30 45 H -0.624 -5.1266 -1.3262 0
M  V30 46 H -1.7096 -6.4028 -0.7502 0
M  V30 47 H -2.3377 -5.0856 -1.7518 0
M  V30 48 H 0.1064 -4.6567 1.1021 0
M  V30 49 H -1.1109 -4.3714 2.3476 0
M  V30 50 H -0.9615 -5.9731 1.6168 0
M  V30 51 H -4.0894 -4.4821 0.0337 0
M  V30 52 H -3.5929 -4.2529 1.7109 0
M  V30 53 H -3.5039 -5.8619 0.9807 0
M  V30 54 H 7.65 2.0862 -0.1785 0
M  V30 55 H 8.1848 2.8914 1.3049 0
M  V30 56 H 7.9946 1.1313 1.2667 0
M  V30 57 H 5.5369 3.5639 -0.2664 0
M  V30 58 H 4.5194 3.7243 1.1658 0
M  V30 59 H 6.1534 4.3996 1.1707 0
M  V30 60 H 6.3836 1.2277 3.2826 0
M  V30 61 H 5.0225 2.3503 3.2621 0
M  V30 62 H 6.6743 2.9763 3.3307 0
M  V30 63 H -2.0929 2.9616 0.9117 0
M  V30 64 H -5.7123 1.5348 -4.228 0
M  V30 65 H -6.6392 1.1415 0.9748 0
M  V30 66 H -7.7624 0.6789 -0.3095 0
M  V30 END ATOM
M  V30 BEGIN BOND
M  V30 1 2 1 2
M  V30 2 1 1 3
M  V30 3 1 1 4
M  V30 4 1 1 5
M  V30 5 1 3 6
M  V30 6 1 4 7
M  V30 7 1 5 8
M  V30 8 1 6 9
M  V30 9 1 7 10
M  V30 10 1 8 11
M  V30 11 1 9 12
M  V30 12 1 10 13
M  V30 13 1 11 14
M  V30 14 2 12 15
M  V30 15 1 12 16
M  V30 16 2 13 17
M  V30 17 1 13 18
M  V30 18 1 14 19
M  V30 19 1 16 20
M  V30 20 1 16 21
M  V30 21 1 16 22
M  V30 22 1 18 23
M  V30 23 1 18 24
M  V30 24 1 18 25
M  V30 25 1 19 26
M  V30 26 1 19 27
M  V30 27 2 26 28
M  V30 28 1 26 29
M  V30 29 2 27 30
M  V30 30 1 28 31
M  V30 31 2 29 32
M  V30 32 2 31 33
M  V30 33 1 32 34
M  V30 34 1 29 30
M  V30 35 1 32 33
M  V30 36 1 5 35
M  V30 37 1 5 36
M  V30 38 1 6 37
M  V30 39 1 6 38
M  V30 40 1 7 39
M  V30 41 1 7 40
M  V30 42 1 11 41
M  V30 43 1 11 42
M  V30 44 1 14 43
M  V30 45 1 14 44
M  V30 46 1 20 45
M  V30 47 1 20 46
M  V30 48 1 20 47
M  V30 49 1 21 48
M  V30 50 1 21 49
M  V30 51 1 21 50
M  V30 52 1 22 51
M  V30 53 1 22 52
M  V30 54 1 22 53
M  V30 55 1 23 54
M  V30 56 1 23 55
M  V30 57 1 23 56
M  V30 58 1 24 57
M  V30 59 1 24 58
M  V30 60 1 24 59
M  V30 61 1 25 60
M  V30 62 1 25 61
M  V30 63 1 25 62
M  V30 64 1 27 63
M  V30 65 1 31 64
M  V30 66 1 34 65
M  V30 67 1 34 66
M  V30 END BOND
M  V30 END CTAB
M  END
>  <level_0>
5104

>  <index>
5104

>  <NO.>
5105

>  <Name>
adefovir dipivoxil

>  <SMILES>
CC(C)(C)C(=O)OCOP(=O)(COCCn1cnc2c(N)ncnc21)OCOC(=O)C(C)(C)C

>  <logBB>


>  <Class>
-1

>  <MW>
501.2

>  <nHBAcc>
12

>  <nHBDon>
1

>  <SLogP>
2.7

>  <TopoPSA>
166.98

>  <MMFF94 Energy>
-44.05

$$$$
CC(C)(CO)C(O)C(=O)NCCC(=O)O
Actelion Java MolfileCreator 2.0

  0  0  0  0  0  0              0 V3000
M  V30 BEGIN CTAB
M  V30 COUNTS 32 31 0 0 0
M  V30 BEGIN ATOM
M  V30 1 O 1.0853 0.3875 -0.7751 0
M  V30 2 C 0.0092 0.6286 -0.2425 0
M  V30 3 N -1.0901 1.0807 -0.9463 0
M  V30 4 C -0.2715 0.515 1.2758 0 CFG=1
M  V30 5 C -1.0616 1.3252 -2.3747 0
M  V30 6 O -1.639 0.1049 1.4535 0
M  V30 7 C 0.7033 -0.3762 2.0984 0
M  V30 8 C -1.1785 0.0376 -3.1778 0
M  V30 9 C 2.1354 0.2094 2.0471 0
M  V30 10 C 0.2244 -0.4068 3.5708 0
M  V30 11 C 0.7178 -1.833 1.5909 0
M  V30 12 C -1.1893 0.3354 -4.6477 0
M  V30 13 O 3.0065 -0.4928 2.9301 0
M  V30 14 O -1.2119 1.4312 -5.1809 0
M  V30 15 O -1.1945 -0.7888 -5.3907 0
M  V30 16 H -1.9436 1.2402 -0.4162 0
M  V30 17 H -0.2194 1.5418 1.6614 0
M  V30 18 H -0.1303 1.849 -2.62 0
M  V30 19 H -1.8936 2.0017 -2.5993 0
M  V30 20 H -1.7091 -0.8094 1.1269 0
M  V30 21 H -0.3326 -0.6234 -2.9608 0
M  V30 22 H -2.1062 -0.4848 -2.9197 0
M  V30 23 H 2.1341 1.2627 2.3487 0
M  V30 24 H 2.5715 0.1381 1.0482 0
M  V30 25 H 0.8784 -1.0222 4.1986 0
M  V30 26 H 0.2072 0.6026 3.997 0
M  V30 27 H -0.7845 -0.8246 3.6594 0
M  V30 28 H -0.2746 -2.2921 1.6453 0
M  V30 29 H 1.3907 -2.456 2.1913 0
M  V30 30 H 1.0586 -1.8959 0.5528 0
M  V30 31 H 3.8993 -0.1308 2.7938 0
M  V30 32 H -1.1952 -0.4681 -6.3171 0
M  V30 END ATOM
M  V30 BEGIN BOND
M  V30 1 2 1 2
M  V30 2 1 2 3
M  V30 3 1 2 4
M  V30 4 1 3 5
M  V30 5 1 4 6
M  V30 6 1 4 7
M  V30 7 1 5 8
M  V30 8 1 7 9
M  V30 9 1 7 10
M  V30 10 1 7 11
M  V30 11 1 8 12
M  V30 12 1 9 13
M  V30 13 2 12 14
M  V30 14 1 12 15
M  V30 15 1 3 16
M  V30 16 1 4 17
M  V30 17 1 5 18
M  V30 18 1 5 19
M  V30 19 1 6 20
M  V30 20 1 8 21
M  V30 21 1 8 22
M  V30 22 1 9 23
M  V30 23 1 9 24
M  V30 24 1 10 25
M  V30 25 1 10 26
M  V30 26 1 10 27
M  V30 27 1 11 28
M  V30 28 1 11 29
M  V30 29 1 11 30
M  V30 30 1 13 31
M  V30 31 1 15 32
M  V30 END BOND
M  V30 BEGIN COLLECTION
M  V30 MDLV30/STERAC1 ATOMS=(1 4)
M  V30 END COLLECTION
M  V30 END CTAB
M  END
>  <level_0>
5110

>  <index>
5110

>  <NO.>
5111

>  <Name>
dl-pantothenic acid

>  <SMILES>
CC(C)(CO)C(O)C(=O)NCCC(=O)O

>  <logBB>


>  <Class>
-1

>  <MW>
219.11

>  <nHBAcc>
4

>  <nHBDon>
4

>  <SLogP>
-1.04

>  <TopoPSA>
106.86

>  <MMFF94 Energy>
-9.4401

$$$$
CC(C)(CO)C(O)C(=O)NCCCO
Actelion Java MolfileCreator 2.0

  0  0  0  0  0  0              0 V3000
M  V30 BEGIN CTAB
M  V30 COUNTS 33 32 0 0 0
M  V30 BEGIN ATOM
M  V30 1 O 0.3085 -1.9298 -0.6944 0
M  V30 2 C 0.2927 -0.7768 -0.2581 0
M  V30 3 N -0.1856 -0.4415 0.9853 0
M  V30 4 C 0.927 0.3759 -1.0677 0 CFG=1
M  V30 5 C -0.8233 -1.4086 1.8556 0
M  V30 6 O 1.8338 -0.2138 -2.0168 0
M  V30 7 C -0.0611 1.3231 -1.8063 0
M  V30 8 C 0.1732 -2.3015 2.5929 0
M  V30 9 C -1.0043 0.5349 -2.7396 0
M  V30 10 C -0.8794 2.1613 -0.8043 0
M  V30 11 C 0.7503 2.3063 -2.6829 0
M  V30 12 C 1.0934 -1.5345 3.5327 0
M  V30 13 O -1.954 -0.2091 -1.9896 0
M  V30 14 O 0.3288 -0.8456 4.5133 0
M  V30 15 H -0.1437 0.5184 1.3 0
M  V30 16 H 1.5499 0.9592 -0.3781 0
M  V30 17 H -1.487 -2.0321 1.2457 0
M  V30 18 H -1.449 -0.8508 2.5602 0
M  V30 19 H 1.5749 -1.1584 -2.076 0
M  V30 20 H 0.7824 -2.863 1.8757 0
M  V30 21 H -0.4006 -3.031 3.1773 0
M  V30 22 H -1.5654 1.215 -3.3904 0
M  V30 23 H -0.4433 -0.1546 -3.38 0
M  V30 24 H -1.5076 2.8917 -1.3275 0
M  V30 25 H -1.548 1.5491 -0.1924 0
M  V30 26 H -0.2211 2.7176 -0.1275 0
M  V30 27 H 1.4787 2.861 -2.0804 0
M  V30 28 H 0.094 3.0396 -3.1661 0
M  V30 29 H 1.2961 1.7875 -3.4785 0
M  V30 30 H 1.7631 -2.2321 4.046 0
M  V30 31 H 1.7035 -0.8066 2.9889 0
M  V30 32 H -2.3501 -0.8635 -2.5917 0
M  V30 33 H 0.9601 -0.4603 5.1456 0
M  V30 END ATOM
M  V30 BEGIN BOND
M  V30 1 2 1 2
M  V30 2 1 2 3
M  V30 3 1 2 4
M  V30 4 1 3 5
M  V30 5 1 4 6
M  V30 6 1 4 7
M  V30 7 1 5 8
M  V30 8 1 7 9
M  V30 9 1 7 10
M  V30 10 1 7 11
M  V30 11 1 8 12
M  V30 12 1 9 13
M  V30 13 1 12 14
M  V30 14 1 3 15
M  V30 15 1 4 16
M  V30 16 1 5 17
M  V30 17 1 5 18
M  V30 18 1 6 19
M  V30 19 1 8 20
M  V30 20 1 8 21
M  V30 21 1 9 22
M  V30 22 1 9 23
M  V30 23 1 10 24
M  V30 24 1 10 25
M  V30 25 1 10 26
M  V30 26 1 11 27
M  V30 27 1 11 28
M  V30 28 1 11 29
M  V30 29 1 12 30
M  V30 30 1 12 31
M  V30 31 1 13 32
M  V30 32 1 14 33
M  V30 END BOND
M  V30 BEGIN COLLECTION
M  V30 MDLV30/STERAC1 ATOMS=(1 4)
M  V30 END COLLECTION
M  V30 END CTAB
M  END
>  <level_0>
5111

>  <index>
5111

>  <NO.>
5112

>  <Name>
dl-panthenol

>  <SMILES>
CC(C)(CO)C(O)C(=O)NCCCO

>  <logBB>


>  <Class>
-1

>  <MW>
205.13

>  <nHBAcc>
4

>  <nHBDon>
4

>  <SLogP>
-1.14

>  <TopoPSA>
89.79

>  <MMFF94 Energy>
21.773

$$$$
CC(C)(Sc1cc(C(C)(C)C)c(O)c(C(C)(C)C)c1)Sc1cc(C(C)(C)C)c(O)c(C(C)(C)C)c1
Actelion Java MolfileCreator 2.0

  0  0  0  0  0  0              0 V3000
M  V30 BEGIN CTAB
M  V30 COUNTS 83 84 0 0 0
M  V30 BEGIN ATOM
M  V30 1 S 0.1593 1.5144 -2.6315 0
M  V30 2 C -1.2199 1.3798 -1.5163 0
M  V30 3 C 1.3792 2.5365 -1.6646 0
M  V30 4 C -1.2659 0.3341 -0.592 0
M  V30 5 C -2.266 2.299 -1.5784 0
M  V30 6 S 3.0955 1.8612 -1.9622 0
M  V30 7 C 1.3566 3.9402 -2.293 0
M  V30 8 C 1.1193 2.6689 -0.1585 0
M  V30 9 C -2.3237 0.1957 0.325 0
M  V30 10 C -3.3806 2.2014 -0.7278 0
M  V30 11 C 3.0279 0.2811 -1.1294 0
M  V30 12 C -3.3897 1.12 0.1919 0
M  V30 13 C -2.2602 -0.9218 1.3967 0
M  V30 14 C -4.5377 3.2274 -0.8205 0
M  V30 15 C 2.5997 -0.8575 -1.811 0
M  V30 16 C 3.4439 0.1735 0.1992 0
M  V30 17 O -4.5164 0.9718 0.9529 0
M  V30 18 C -0.8084 -1.3939 1.6869 0
M  V30 19 C -2.8123 -0.4738 2.7723 0
M  V30 20 C -3.0486 -2.1471 0.8946 0
M  V30 21 C -4.283 4.3616 -1.8489 0
M  V30 22 C -5.8426 2.5303 -1.2653 0
M  V30 23 C -4.7517 3.9319 0.5388 0
M  V30 24 C 2.5404 -2.1153 -1.1876 0
M  V30 25 C 3.396 -1.0456 0.9029 0
M  V30 26 C 2.9659 -2.1766 0.1643 0
M  V30 27 C 2.0468 -3.3592 -1.968 0
M  V30 28 C 3.8127 -1.0839 2.3957 0
M  V30 29 O 2.973 -3.4123 0.7495 0
M  V30 30 C 1.6089 -3.0487 -3.4245 0
M  V30 31 C 3.1713 -4.413 -2.076 0
M  V30 32 C 0.8083 -3.9764 -1.2799 0
M  V30 33 C 3.7515 0.3117 3.0773 0
M  V30 34 C 2.9007 -1.9896 3.2579 0
M  V30 35 C 5.2714 -1.5735 2.4979 0
M  V30 36 H -0.4362 -0.368 -0.5949 0
M  V30 37 H -2.1946 3.0886 -2.3203 0
M  V30 38 H 2.0836 4.6056 -1.8103 0
M  V30 39 H 1.5875 3.9256 -3.3655 0
M  V30 40 H 0.3733 4.4125 -2.1739 0
M  V30 41 H 0.1908 3.2161 0.0419 0
M  V30 42 H 1.918 3.2395 0.3317 0
M  V30 43 H 1.0498 1.7031 0.3499 0
M  V30 44 H 2.3135 -0.737 -2.8519 0
M  V30 45 H 3.8028 1.0795 0.6789 0
M  V30 46 H -4.7622 0.0339 0.9193 0
M  V30 47 H -0.1618 -0.5503 1.9563 0
M  V30 48 H -0.7806 -2.11 2.5173 0
M  V30 49 H -0.3605 -1.9109 0.8327 0
M  V30 50 H -3.9012 -0.3823 2.7903 0
M  V30 51 H -2.5721 -1.205 3.554 0
M  V30 52 H -2.3827 0.4875 3.0771 0
M  V30 53 H -2.641 -2.5192 -0.0528 0
M  V30 54 H -4.1055 -1.9199 0.7243 0
M  V30 55 H -3.0048 -2.9683 1.6195 0
M  V30 56 H -4.1814 3.9701 -2.8678 0
M  V30 57 H -5.1163 5.0749 -1.8666 0
M  V30 58 H -3.3788 4.9321 -1.6055 0
M  V30 59 H -6.2108 1.8062 -0.5332 0
M  V30 60 H -6.6479 3.2597 -1.414 0
M  V30 61 H -5.6993 1.9959 -2.2118 0
M  V30 62 H -3.8217 4.3925 0.8928 0
M  V30 63 H -5.1016 3.2545 1.3225 0
M  V30 64 H -5.5052 4.7247 0.4578 0
M  V30 65 H 3.8471 -3.5299 1.1537 0
M  V30 66 H 2.4393 -2.6546 -4.022 0
M  V30 67 H 1.2542 -3.9538 -3.9326 0
M  V30 68 H 0.7865 -2.3238 -3.454 0
M  V30 69 H 3.4531 -4.8383 -1.109 0
M  V30 70 H 2.8625 -5.2555 -2.7064 0
M  V30 71 H 4.0747 -3.9791 -2.5206 0
M  V30 72 H 2.0E-4 -3.2404 -1.1954 0
M  V30 73 H 1.0175 -4.351 -0.2743 0
M  V30 74 H 0.4214 -4.8263 -1.8547 0
M  V30 75 H 2.7606 0.7676 2.9647 0
M  V30 76 H 3.9601 0.2396 4.1519 0
M  V30 77 H 4.4986 1.0037 2.6729 0
M  V30 78 H 3.0535 -3.0557 3.0739 0
M  V30 79 H 3.0999 -1.8498 4.3277 0
M  V30 80 H 1.8431 -1.7617 3.0884 0
M  V30 81 H 5.9486 -0.92 1.9351 0
M  V30 82 H 5.4003 -2.5864 2.105 0
M  V30 83 H 5.6115 -1.5845 3.5401 0
M  V30 END ATOM
M  V30 BEGIN BOND
M  V30 1 1 1 2
M  V30 2 1 1 3
M  V30 3 2 2 4
M  V30 4 1 2 5
M  V30 5 1 3 6
M  V30 6 1 3 7
M  V30 7 1 3 8
M  V30 8 1 4 9
M  V30 9 2 5 10
M  V30 10 1 6 11
M  V30 11 2 9 12
M  V30 12 1 9 13
M  V30 13 1 10 14
M  V30 14 2 11 15
M  V30 15 1 11 16
M  V30 16 1 12 17
M  V30 17 1 13 18
M  V30 18 1 13 19
M  V30 19 1 13 20
M  V30 20 1 14 21
M  V30 21 1 14 22
M  V30 22 1 14 23
M  V30 23 1 15 24
M  V30 24 2 16 25
M  V30 25 2 24 26
M  V30 26 1 24 27
M  V30 27 1 25 28
M  V30 28 1 26 29
M  V30 29 1 27 30
M  V30 30 1 27 31
M  V30 31 1 27 32
M  V30 32 1 28 33
M  V30 33 1 28 34
M  V30 34 1 28 35
M  V30 35 1 10 12
M  V30 36 1 25 26
M  V30 37 1 4 36
M  V30 38 1 5 37
M  V30 39 1 7 38
M  V30 40 1 7 39
M  V30 41 1 7 40
M  V30 42 1 8 41
M  V30 43 1 8 42
M  V30 44 1 8 43
M  V30 45 1 15 44
M  V30 46 1 16 45
M  V30 47 1 17 46
M  V30 48 1 18 47
M  V30 49 1 18 48
M  V30 50 1 18 49
M  V30 51 1 19 50
M  V30 52 1 19 51
M  V30 53 1 19 52
M  V30 54 1 20 53
M  V30 55 1 20 54
M  V30 56 1 20 55
M  V30 57 1 21 56
M  V30 58 1 21 57
M  V30 59 1 21 58
M  V30 60 1 22 59
M  V30 61 1 22 60
M  V30 62 1 22 61
M  V30 63 1 23 62
M  V30 64 1 23 63
M  V30 65 1 23 64
M  V30 66 1 29 65
M  V30 67 1 30 66
M  V30 68 1 30 67
M  V30 69 1 30 68
M  V30 70 1 31 69
M  V30 71 1 31 70
M  V30 72 1 31 71
M  V30 73 1 32 72
M  V30 74 1 32 73
M  V30 75 1 32 74
M  V30 76 1 33 75
M  V30 77 1 33 76
M  V30 78 1 33 77
M  V30 79 1 34 78
M  V30 80 1 34 79
M  V30 81 1 34 80
M  V30 82 1 35 81
M  V30 83 1 35 82
M  V30 84 1 35 83
M  V30 END BOND
M  V30 END CTAB
M  END
>  <level_0>
5116

>  <index>
5116

>  <NO.>
5117

>  <Name>
probucol

>  <SMILES>
CC(C)(Sc1cc(C(C)(C)C)c(O)c(C(C)(C)C)c1)Sc1cc(C(C)(C)C)c(O)c(C(C)(C)C)c1

>  <logBB>


>  <Class>
-1

>  <MW>
516.31

>  <nHBAcc>
4

>  <nHBDon>
2

>  <SLogP>
9.91

>  <TopoPSA>
40.46

>  <MMFF94 Energy>
114.79

$$$$
CC(C)=CCCC(C)=CCCC(C)=CCCC(C)=CCC1=C(C)C(=O)c2ccccc2C1=O
Actelion Java MolfileCreator 2.0

  0  0  0  0  0  0              0 V3000
M  V30 BEGIN CTAB
M  V30 COUNTS 73 74 0 0 0
M  V30 BEGIN ATOM
M  V30 1 O -3.303 -5.4309 2.0437 0
M  V30 2 C -3.0208 -5.3157 3.2317 0
M  V30 3 C -4.0942 -5.2918 4.2389 0
M  V30 4 C -1.603 -5.1916 3.6893 0
M  V30 5 C -3.7924 -5.1711 5.5888 0
M  V30 6 C -5.432 -5.3929 3.8293 0
M  V30 7 C -1.3139 -5.0745 5.0014 0
M  V30 8 C -0.577 -5.2389 2.5758 0
M  V30 9 C -2.3942 -5.0662 6.0326 0
M  V30 10 C -4.8248 -5.1509 6.538 0
M  V30 11 C -6.4591 -5.3722 4.7744 0
M  V30 12 C 0.0653 -4.9252 5.5823 0
M  V30 13 C -0.3315 -3.8737 1.9873 0
M  V30 14 O -2.1318 -4.9777 7.2273 0
M  V30 15 C -6.1555 -5.2512 6.129 0
M  V30 16 C 0.8257 -3.1879 1.8875 0
M  V30 17 C 0.8304 -1.8 1.2672 0
M  V30 18 C 2.1679 -3.6683 2.3699 0
M  V30 19 C 1.3784 -1.7931 -0.1641 0
M  V30 20 C 1.3166 -0.4155 -0.7684 0
M  V30 21 C 2.3346 0.4509 -0.944 0
M  V30 22 C 2.0892 1.797 -1.6032 0
M  V30 23 C 3.748 0.2059 -0.4874 0
M  V30 24 C 2.7238 1.8966 -2.9951 0
M  V30 25 C 2.4444 3.2327 -3.6301 0
M  V30 26 C 1.5541 3.5182 -4.6018 0
M  V30 27 C 1.4506 4.9321 -5.1475 0
M  V30 28 C 0.6247 2.5183 -5.2362 0
M  V30 29 C 0.2209 5.681 -4.6209 0
M  V30 30 C 0.1626 7.0864 -5.1581 0
M  V30 31 C 0.4578 8.2292 -4.5081 0
M  V30 32 C 0.3089 9.5627 -5.1931 0
M  V30 33 C 0.9605 8.3138 -3.0932 0
M  V30 34 H -5.6781 -5.4878 2.7729 0
M  V30 35 H -0.9189 -5.9036 1.7724 0
M  V30 36 H 0.3421 -5.7124 2.929 0
M  V30 37 H -4.5951 -5.0569 7.5983 0
M  V30 38 H -7.4954 -5.4506 4.4526 0
M  V30 39 H 0.3089 -5.791 6.2072 0
M  V30 40 H 0.1232 -4.0228 6.2012 0
M  V30 41 H 0.8486 -4.8352 4.8287 0
M  V30 42 H -1.2318 -3.4141 1.5738 0
M  V30 43 H -6.9538 -5.2349 6.8679 0
M  V30 44 H 1.4222 -1.1279 1.9027 0
M  V30 45 H -0.1864 -1.3843 1.2675 0
M  V30 46 H 2.8915 -3.6738 1.5489 0
M  V30 47 H 2.1483 -4.6801 2.7781 0
M  V30 48 H 2.5436 -3.0038 3.155 0
M  V30 49 H 2.3968 -2.1925 -0.1937 0
M  V30 50 H 0.7803 -2.4649 -0.7934 0
M  V30 51 H 0.3229 -0.1279 -1.1131 0
M  V30 52 H 2.4801 2.5892 -0.951 0
M  V30 53 H 1.0104 1.9866 -1.6862 0
M  V30 54 H 4.3976 0.0085 -1.3454 0
M  V30 55 H 4.1322 1.0841 0.0426 0
M  V30 56 H 3.8345 -0.6359 0.2041 0
M  V30 57 H 3.8129 1.7856 -2.9227 0
M  V30 58 H 2.3849 1.0689 -3.6262 0
M  V30 59 H 3.0608 4.0432 -3.2398 0
M  V30 60 H 1.4299 4.8907 -6.2445 0
M  V30 61 H 2.3551 5.5003 -4.8909 0
M  V30 62 H 0.6819 1.5251 -4.7857 0
M  V30 63 H 0.8564 2.4139 -6.3012 0
M  V30 64 H -0.4149 2.8464 -5.1407 0
M  V30 65 H -0.6975 5.1688 -4.9331 0
M  V30 66 H 0.2082 5.6666 -3.5262 0
M  V30 67 H -0.1774 7.1508 -6.1919 0
M  V30 68 H -0.3949 10.1948 -4.6416 0
M  V30 69 H -0.0653 9.4648 -6.2176 0
M  V30 70 H 1.2751 10.0756 -5.2398 0
M  V30 71 H 1.1932 7.3402 -2.6561 0
M  V30 72 H 1.882 8.9051 -3.0567 0
M  V30 73 H 0.214 8.8002 -2.457 0
M  V30 END ATOM
M  V30 BEGIN BOND
M  V30 1 2 1 2
M  V30 2 1 2 3
M  V30 3 1 2 4
M  V30 4 2 3 5
M  V30 5 1 3 6
M  V30 6 2 4 7
M  V30 7 1 4 8
M  V30 8 1 5 9
M  V30 9 1 5 10
M  V30 10 2 6 11
M  V30 11 1 7 12
M  V30 12 1 8 13
M  V30 13 2 9 14
M  V30 14 2 10 15
M  V30 15 2 13 16
M  V30 16 1 16 17
M  V30 17 1 16 18
M  V30 18 1 17 19
M  V30 19 1 19 20
M  V30 20 2 20 21
M  V30 21 1 21 22
M  V30 22 1 21 23
M  V30 23 1 22 24
M  V30 24 1 24 25
M  V30 25 2 25 26
M  V30 26 1 26 27
M  V30 27 1 26 28
M  V30 28 1 27 29
M  V30 29 1 29 30
M  V30 30 2 30 31
M  V30 31 1 31 32
M  V30 32 1 31 33
M  V30 33 1 7 9
M  V30 34 1 11 15
M  V30 35 1 6 34
M  V30 36 1 8 35
M  V30 37 1 8 36
M  V30 38 1 10 37
M  V30 39 1 11 38
M  V30 40 1 12 39
M  V30 41 1 12 40
M  V30 42 1 12 41
M  V30 43 1 13 42
M  V30 44 1 15 43
M  V30 45 1 17 44
M  V30 46 1 17 45
M  V30 47 1 18 46
M  V30 48 1 18 47
M  V30 49 1 18 48
M  V30 50 1 19 49
M  V30 51 1 19 50
M  V30 52 1 20 51
M  V30 53 1 22 52
M  V30 54 1 22 53
M  V30 55 1 23 54
M  V30 56 1 23 55
M  V30 57 1 23 56
M  V30 58 1 24 57
M  V30 59 1 24 58
M  V30 60 1 25 59
M  V30 61 1 27 60
M  V30 62 1 27 61
M  V30 63 1 28 62
M  V30 64 1 28 63
M  V30 65 1 28 64
M  V30 66 1 29 65
M  V30 67 1 29 66
M  V30 68 1 30 67
M  V30 69 1 32 68
M  V30 70 1 32 69
M  V30 71 1 32 70
M  V30 72 1 33 71
M  V30 73 1 33 72
M  V30 74 1 33 73
M  V30 END BOND
M  V30 END CTAB
M  END
>  <level_0>
5117

>  <index>
5117

>  <NO.>
5118

>  <Name>
menatetrenone

>  <SMILES>
CC(C)=CCCC(C)=CCCC(C)=CCCC(C)=CCC1=C(C)C(=O)c2ccccc2C1=O

>  <logBB>


>  <Class>
-1

>  <MW>
444.3

>  <nHBAcc>
2

>  <nHBDon>
0

>  <SLogP>
8.92

>  <TopoPSA>
34.14

>  <MMFF94 Energy>
93.658

$$$$
CC(C=CC=C(C)C=CC1=C(C)CCCC1(C)C)=CC=CC=C(C)C=CC=C(C)C=CC1=C(C)CCCC1(C)C
Actelion Java MolfileCreator 2.0

  0  0  0  0  0  0              0 V3000
M  V30 BEGIN CTAB
M  V30 COUNTS 96 97 0 0 0
M  V30 BEGIN ATOM
M  V30 1 C -2.3453 -8.9354 -4.4599 0
M  V30 2 C -3.4422 -9.3939 -3.8081 0
M  V30 3 C -2.1217 -7.5068 -4.67 0
M  V30 4 C -1.2519 -9.8727 -5.0166 0
M  V30 5 C -3.6594 -10.8621 -3.5136 0
M  V30 6 C -4.5785 -8.5273 -3.317 0
M  V30 7 C -1.8423 -6.6522 -3.6701 0
M  V30 8 C -1.7279 -11.3504 -5.0213 0
M  V30 9 C -0.8701 -9.5289 -6.4751 0
M  V30 10 C 0.017 -9.7491 -4.143 0
M  V30 11 C -2.4301 -11.7348 -3.7288 0
M  V30 12 C -1.5902 -5.2185 -3.8003 0
M  V30 13 C -1.3163 -4.401 -2.7603 0
M  V30 14 C -1.6431 -4.6269 -5.1909 0
M  V30 15 C -1.215 -4.7371 -1.3513 0
M  V30 16 C -0.9348 -3.8211 -0.4071 0
M  V30 17 C -0.8135 -4.0679 1.0302 0
M  V30 18 C -0.5316 -3.1112 1.9415 0
M  V30 19 C -1.0181 -5.4862 1.5146 0
M  V30 20 C -0.2971 -1.6963 1.7229 0
M  V30 21 C -0.0234 -0.844 2.7251 0
M  V30 22 C 0.2107 0.5701 2.5067 0
M  V30 23 C 0.4919 1.5118 3.4332 0
M  V30 24 C 0.6921 2.8924 2.9773 0
M  V30 25 C 0.6165 1.2471 4.9137 0
M  V30 26 C 0.9778 3.9584 3.7453 0
M  V30 27 C 1.1577 5.289 3.1954 0
M  V30 28 C 1.4446 6.4259 3.8655 0
M  V30 29 C 1.5819 7.6649 3.095 0
M  V30 30 C 1.6351 6.5191 5.3594 0
M  V30 31 C 1.867 8.8856 3.5806 0
M  V30 32 C 2.0037 10.0694 2.7356 0
M  V30 33 C 0.9384 10.6131 2.0972 0
M  V30 34 C 3.4317 10.6448 2.6161 0
M  V30 35 C 1.0669 11.794 1.1598 0
M  V30 36 C -0.4892 10.1412 2.2462 0
M  V30 37 C 3.4166 12.0553 1.9676 0
M  V30 38 C 4.1194 10.801 3.9924 0
M  V30 39 C 4.2919 9.6958 1.7514 0
M  V30 40 C 2.4981 12.1247 0.7581 0
M  V30 41 H -2.1673 -7.1768 -5.7034 0
M  V30 42 H -3.991 -10.9869 -2.4755 0
M  V30 43 H -4.474 -11.2234 -4.1542 0
M  V30 44 H -5.537 -8.9478 -3.6411 0
M  V30 45 H -4.5734 -8.4863 -2.2229 0
M  V30 46 H -4.5467 -7.503 -3.6964 0
M  V30 47 H -1.7974 -7.0716 -2.6685 0
M  V30 48 H -2.4221 -11.5176 -5.8567 0
M  V30 49 H -0.8794 -12.0255 -5.1889 0
M  V30 50 H -0.1703 -10.2685 -6.8818 0
M  V30 51 H -1.7535 -9.5149 -7.124 0
M  V30 52 H -0.3802 -8.5519 -6.5536 0
M  V30 53 H 0.782 -10.4693 -4.4547 0
M  V30 54 H 0.4644 -8.7514 -4.2203 0
M  V30 55 H -0.1971 -9.9284 -3.0838 0
M  V30 56 H -1.7463 -11.6361 -2.878 0
M  V30 57 H -2.7312 -12.7881 -3.7654 0
M  V30 58 H -1.1456 -3.3466 -2.9808 0
M  V30 59 H -1.443 -3.5495 -5.1931 0
M  V30 60 H -2.6346 -4.7682 -5.6349 0
M  V30 61 H -0.8924 -5.0923 -5.8388 0
M  V30 62 H -1.3748 -5.7709 -1.0704 0
M  V30 63 H -0.7825 -2.7968 -0.7352 0
M  V30 64 H -0.4661 -3.4159 2.987 0
M  V30 65 H -2.0251 -5.8392 1.2668 0
M  V30 66 H -0.9075 -5.5755 2.6012 0
M  V30 67 H -0.2821 -6.1602 1.063 0
M  V30 68 H -0.3465 -1.3182 0.7073 0
M  V30 69 H 0.0257 -1.222 3.7409 0
M  V30 70 H 0.1445 0.8755 1.4617 0
M  V30 71 H 0.5948 3.0486 1.9028 0
M  V30 72 H 0.4571 0.2033 5.1908 0
M  V30 73 H -0.1219 1.8339 5.4715 0
M  V30 74 H 1.6185 1.5142 5.2678 0
M  V30 75 H 1.0816 3.8394 4.8169 0
M  V30 76 H 1.0416 5.344 2.1123 0
M  V30 77 H 1.4393 7.5758 2.0175 0
M  V30 78 H 1.5155 5.5673 5.8804 0
M  V30 79 H 2.6425 6.88 5.5952 0
M  V30 80 H 0.9036 7.208 5.7967 0
M  V30 81 H 2.0414 9.048 4.64 0
M  V30 82 H 0.4888 11.607 0.2466 0
M  V30 83 H 0.6186 12.6693 1.6473 0
M  V30 84 H -1.1456 10.9938 2.4529 0
M  V30 85 H -0.8256 9.6651 1.3196 0
M  V30 86 H -0.6356 9.4331 3.0657 0
M  V30 87 H 3.0814 12.8016 2.7016 0
M  V30 88 H 4.4308 12.3516 1.6716 0
M  V30 89 H 5.0877 11.3054 3.8918 0
M  V30 90 H 3.5047 11.3956 4.6783 0
M  V30 91 H 4.3135 9.8335 4.4685 0
M  V30 92 H 5.2859 10.1202 1.5695 0
M  V30 93 H 4.441 8.727 2.242 0
M  V30 94 H 3.8304 9.4997 0.7775 0
M  V30 95 H 2.8384 11.433 -0.0207 0
M  V30 96 H 2.5321 13.1287 0.3193 0
M  V30 END ATOM
M  V30 BEGIN BOND
M  V30 1 2 1 2
M  V30 2 1 1 3
M  V30 3 1 1 4
M  V30 4 1 2 5
M  V30 5 1 2 6
M  V30 6 2 3 7
M  V30 7 1 4 8
M  V30 8 1 4 9
M  V30 9 1 4 10
M  V30 10 1 5 11
M  V30 11 1 7 12
M  V30 12 2 12 13
M  V30 13 1 12 14
M  V30 14 1 13 15
M  V30 15 2 15 16
M  V30 16 1 16 17
M  V30 17 2 17 18
M  V30 18 1 17 19
M  V30 19 1 18 20
M  V30 20 2 20 21
M  V30 21 1 21 22
M  V30 22 2 22 23
M  V30 23 1 23 24
M  V30 24 1 23 25
M  V30 25 2 24 26
M  V30 26 1 26 27
M  V30 27 2 27 28
M  V30 28 1 28 29
M  V30 29 1 28 30
M  V30 30 2 29 31
M  V30 31 1 31 32
M  V30 32 2 32 33
M  V30 33 1 32 34
M  V30 34 1 33 35
M  V30 35 1 33 36
M  V30 36 1 34 37
M  V30 37 1 34 38
M  V30 38 1 34 39
M  V30 39 1 35 40
M  V30 40 1 8 11
M  V30 41 1 37 40
M  V30 42 1 3 41
M  V30 43 1 5 42
M  V30 44 1 5 43
M  V30 45 1 6 44
M  V30 46 1 6 45
M  V30 47 1 6 46
M  V30 48 1 7 47
M  V30 49 1 8 48
M  V30 50 1 8 49
M  V30 51 1 9 50
M  V30 52 1 9 51
M  V30 53 1 9 52
M  V30 54 1 10 53
M  V30 55 1 10 54
M  V30 56 1 10 55
M  V30 57 1 11 56
M  V30 58 1 11 57
M  V30 59 1 13 58
M  V30 60 1 14 59
M  V30 61 1 14 60
M  V30 62 1 14 61
M  V30 63 1 15 62
M  V30 64 1 16 63
M  V30 65 1 18 64
M  V30 66 1 19 65
M  V30 67 1 19 66
M  V30 68 1 19 67
M  V30 69 1 20 68
M  V30 70 1 21 69
M  V30 71 1 22 70
M  V30 72 1 24 71
M  V30 73 1 25 72
M  V30 74 1 25 73
M  V30 75 1 25 74
M  V30 76 1 26 75
M  V30 77 1 27 76
M  V30 78 1 29 77
M  V30 79 1 30 78
M  V30 80 1 30 79
M  V30 81 1 30 80
M  V30 82 1 31 81
M  V30 83 1 35 82
M  V30 84 1 35 83
M  V30 85 1 36 84
M  V30 86 1 36 85
M  V30 87 1 36 86
M  V30 88 1 37 87
M  V30 89 1 37 88
M  V30 90 1 38 89
M  V30 91 1 38 90
M  V30 92 1 38 91
M  V30 93 1 39 92
M  V30 94 1 39 93
M  V30 95 1 39 94
M  V30 96 1 40 95
M  V30 97 1 40 96
M  V30 END BOND
M  V30 END CTAB
M  END
>  <level_0>
5130

>  <index>
5130

>  <NO.>
5131

>  <Name>
beta-carotene

>  <SMILES>
CC(C=CC=C(C)C=CC1=C(C)CCCC1(C)C)=CC=CC=C(C)C=CC=C(C)C=CC1=C(C)CCCC1(C)C

>  <logBB>


>  <Class>
-1

>  <MW>
536.44

>  <nHBAcc>
0

>  <nHBDon>
0

>  <SLogP>
12.61

>  <TopoPSA>
0.0

>  <MMFF94 Energy>
94.151

$$$$
CC(Cn1cnc2c(N)ncnc21)OCP(=O)(O)O
Actelion Java MolfileCreator 2.0

  0  0  0  0  0  0              0 V3000
M  V30 BEGIN CTAB
M  V30 COUNTS 33 34 0 0 0
M  V30 BEGIN ATOM
M  V30 1 P -0.4829 2.2551 1.3687 0
M  V30 2 O 0.6349 1.8473 2.2739 0
M  V30 3 O -0.8404 3.8069 1.5609 0
M  V30 4 O -0.0497 2.2308 -0.1721 0
M  V30 5 C -2.0247 1.3493 1.4875 0
M  V30 6 O -1.8837 0.0287 0.9357 0
M  V30 7 C -1.1418 -0.8821 1.7534 0 CFG=2
M  V30 8 C -0.3759 -1.8558 0.8427 0
M  V30 9 C -2.1225 -1.6494 2.6361 0
M  V30 10 N 0.5945 -1.1923 -0.0077 0
M  V30 11 C 0.5466 -1.1044 -1.3722 0
M  V30 12 C 1.7276 -0.5428 0.409 0
M  V30 13 N -0.3685 -1.628 -2.2043 0
M  V30 14 C 1.6553 -0.3478 -1.7177 0
M  V30 15 N 2.3769 0.012 -0.5945 0
M  V30 16 C -0.0915 -1.3087 -3.484 0
M  V30 17 C 1.8423 -0.0901 -3.0863 0
M  V30 18 N 0.9436 -0.5858 -3.9666 0
M  V30 19 N 2.9016 0.6402 -3.5759 0
M  V30 20 H -0.0452 4.3663 1.6341 0
M  V30 21 H 0.9107 2.344 -0.3151 0
M  V30 22 H -2.388 1.3008 2.5187 0
M  V30 23 H -2.7824 1.8615 0.8871 0
M  V30 24 H -0.4348 -0.3514 2.3964 0
M  V30 25 H -1.0724 -2.3978 0.1928 0
M  V30 26 H 0.1771 -2.5935 1.4357 0
M  V30 27 H -2.6692 -0.9663 3.2945 0
M  V30 28 H -2.873 -2.1679 2.029 0
M  V30 29 H -1.6039 -2.3856 3.258 0
M  V30 30 H 2.0165 -0.481 1.4517 0
M  V30 31 H -0.7903 -1.6828 -4.2268 0
M  V30 32 H 3.6085 0.9727 -2.9372 0
M  V30 33 H 2.9755 0.7535 -4.574 0
M  V30 END ATOM
M  V30 BEGIN BOND
M  V30 1 2 1 2
M  V30 2 1 1 3
M  V30 3 1 1 4
M  V30 4 1 1 5
M  V30 5 1 5 6
M  V30 6 1 6 7
M  V30 7 1 7 8
M  V30 8 1 7 9
M  V30 9 1 8 10
M  V30 10 1 10 11
M  V30 11 1 10 12
M  V30 12 2 11 13
M  V30 13 1 11 14
M  V30 14 2 12 15
M  V30 15 1 13 16
M  V30 16 2 14 17
M  V30 17 2 16 18
M  V30 18 1 17 19
M  V30 19 1 14 15
M  V30 20 1 17 18
M  V30 21 1 3 20
M  V30 22 1 4 21
M  V30 23 1 5 22
M  V30 24 1 5 23
M  V30 25 1 7 24
M  V30 26 1 8 25
M  V30 27 1 8 26
M  V30 28 1 9 27
M  V30 29 1 9 28
M  V30 30 1 9 29
M  V30 31 1 12 30
M  V30 32 1 16 31
M  V30 33 1 19 32
M  V30 34 1 19 33
M  V30 END BOND
M  V30 BEGIN COLLECTION
M  V30 MDLV30/STERAC1 ATOMS=(1 7)
M  V30 END COLLECTION
M  V30 END CTAB
M  END
>  <level_0>
5137

>  <index>
5137

>  <NO.>
5138

>  <Name>
apropovir

>  <SMILES>
CC(Cn1cnc2c(N)ncnc21)OCP(=O)(O)O

>  <logBB>


>  <Class>
-1

>  <MW>
287.08

>  <nHBAcc>
6

>  <nHBDon>
3

>  <SLogP>
-0.05

>  <TopoPSA>
136.38

>  <MMFF94 Energy>
-54.238

$$$$
CC(O)(P(=O)(O)O)P(=O)(O)O
Actelion Java MolfileCreator 2.0

  0  0  0  0  0  0              0 V3000
M  V30 BEGIN CTAB
M  V30 COUNTS 19 18 0 0 0
M  V30 BEGIN ATOM
M  V30 1 P -0.9245 0.5042 1.0926 0
M  V30 2 O -0.2804 1.6659 1.7697 0
M  V30 3 O -1.0274 -0.7778 2.0599 0
M  V30 4 O -2.4952 0.7786 0.8775 0
M  V30 5 C -0.288 -0.1293 -0.486 0
M  V30 6 P 1.4759 -0.5641 -0.5416 0
M  V30 7 O -1.0142 -1.3713 -0.738 0
M  V30 8 C -0.6245 0.8223 -1.6311 0
M  V30 9 O 2.0715 -0.9921 -1.8441 0
M  V30 10 O 1.7038 -1.6925 0.578 0
M  V30 11 O 2.3029 0.6547 0.0843 0
M  V30 12 H -1.1861 -0.5331 2.9912 0
M  V30 13 H -2.9023 1.2722 1.6127 0
M  V30 14 H -0.9647 -1.8716 0.1042 0
M  V30 15 H -1.7023 1.0043 -1.6902 0
M  V30 16 H -0.3171 0.4004 -2.5934 0
M  V30 17 H -0.1178 1.7825 -1.496 0
M  V30 18 H 2.5541 -2.1584 0.4689 0
M  V30 19 H 3.2633 0.5941 -0.0746 0
M  V30 END ATOM
M  V30 BEGIN BOND
M  V30 1 2 1 2
M  V30 2 1 1 3
M  V30 3 1 1 4
M  V30 4 1 1 5
M  V30 5 1 5 6
M  V30 6 1 5 7
M  V30 7 1 5 8
M  V30 8 2 6 9
M  V30 9 1 6 10
M  V30 10 1 6 11
M  V30 11 1 3 12
M  V30 12 1 4 13
M  V30 13 1 7 14
M  V30 14 1 8 15
M  V30 15 1 8 16
M  V30 16 1 8 17
M  V30 17 1 10 18
M  V30 18 1 11 19
M  V30 END BOND
M  V30 END CTAB
M  END
>  <level_0>
5141

>  <index>
5141

>  <NO.>
5142

>  <Name>
etidronic acid

>  <SMILES>
CC(O)(P(=O)(O)O)P(=O)(O)O

>  <logBB>


>  <Class>
-1

>  <MW>
205.97

>  <nHBAcc>
3

>  <nHBDon>
5

>  <SLogP>
-0.99

>  <TopoPSA>
135.29

>  <MMFF94 Energy>
-151.97

$$$$
CC(O)C(O)C1CNc2nc(N)[nH]c(=O)c2N1
Actelion Java MolfileCreator 2.0

  0  0  0  0  0  0              0 V3000
M  V30 BEGIN CTAB
M  V30 COUNTS 32 33 0 0 0
M  V30 BEGIN ATOM
M  V30 1 O 0.3916 2.901 2.1947 0
M  V30 2 C -0.6701 2.4238 1.7982 0
M  V30 3 N -1.8801 2.9341 2.1552 0
M  V30 4 C -0.7111 1.252 0.8792 0
M  V30 5 C -3.0487 2.427 1.6858 0
M  V30 6 N 0.4916 0.686 0.4535 0
M  V30 7 C -1.9346 0.8354 0.4694 0
M  V30 8 N -3.107 1.4215 0.8746 0
M  V30 9 N -4.1823 3.0269 2.106 0
M  V30 10 C 0.5106 -0.2925 -0.6553 0
M  V30 11 N -1.9875 -0.2337 -0.4101 0
M  V30 12 C 1.7192 -1.2475 -0.4775 0
M  V30 13 C -0.8389 -1.0765 -0.7203 0
M  V30 14 O 2.9389 -0.4757 -0.4949 0
M  V30 15 C 1.8208 -2.311 -1.5893 0
M  V30 16 O 1.9527 -1.6624 -2.8554 0
M  V30 17 C 3.0188 -3.2368 -1.4029 0
M  V30 18 H -1.8677 3.7226 2.7778 0
M  V30 19 H 1.2965 1.2842 0.6198 0
M  V30 20 H -4.2062 3.8149 2.7327 0
M  V30 21 H -5.0581 2.658 1.7572 0
M  V30 22 H 0.6277 0.291 -1.5774 0
M  V30 23 H -2.924 -0.5264 -0.6584 0
M  V30 24 H 1.6655 -1.7461 0.4985 0
M  V30 25 H -0.9735 -1.5156 -1.7143 0
M  V30 26 H -0.8241 -1.8993 0.0047 0
M  V30 27 H 2.9334 0.0513 0.3244 0
M  V30 28 H 0.9146 -2.9235 -1.6223 0
M  V30 29 H 2.7084 -1.048 -2.7563 0
M  V30 30 H 3.9656 -2.6896 -1.4642 0
M  V30 31 H 3.0433 -3.9864 -2.2015 0
M  V30 32 H 2.9722 -3.7557 -0.4407 0
M  V30 END ATOM
M  V30 BEGIN BOND
M  V30 1 2 1 2
M  V30 2 1 2 3
M  V30 3 1 2 4
M  V30 4 1 3 5
M  V30 5 1 4 6
M  V30 6 2 4 7
M  V30 7 2 5 8
M  V30 8 1 5 9
M  V30 9 1 6 10
M  V30 10 1 7 11
M  V30 11 1 10 12
M  V30 12 1 10 13
M  V30 13 1 12 14
M  V30 14 1 12 15
M  V30 15 1 15 16
M  V30 16 1 15 17
M  V30 17 1 7 8
M  V30 18 1 11 13
M  V30 19 1 3 18
M  V30 20 1 6 19
M  V30 21 1 9 20
M  V30 22 1 9 21
M  V30 23 1 10 22
M  V30 24 1 11 23
M  V30 25 1 12 24
M  V30 26 1 13 25
M  V30 27 1 13 26
M  V30 28 1 14 27
M  V30 29 1 15 28
M  V30 30 1 16 29
M  V30 31 1 17 30
M  V30 32 1 17 31
M  V30 33 1 17 32
M  V30 END BOND
M  V30 END CTAB
M  END
>  <level_0>
5142

>  <index>
5142

>  <NO.>
5143

>  <Name>
tetrahydrobiopterin

>  <SMILES>
CC(O)C(O)C1CNc2nc(N)[nH]c(=O)c2N1

>  <logBB>


>  <Class>
-1

>  <MW>
241.12

>  <nHBAcc>
7

>  <nHBDon>
6

>  <SLogP>
-1.7

>  <TopoPSA>
136.29

>  <MMFF94 Energy>
2.5961

$$$$
CC(S)C(=O)NCC(=O)O
Actelion Java MolfileCreator 2.0

  0  0  0  0  0  0              0 V3000
M  V30 BEGIN CTAB
M  V30 COUNTS 19 18 0 0 0
M  V30 BEGIN ATOM
M  V30 1 S -0.9564 -2.3923 -0.4781 0
M  V30 2 C -0.4757 -1.5066 1.0508 0 CFG=2
M  V30 3 C 0.0652 -0.1169 0.6989 0
M  V30 4 C 0.5415 -2.3366 1.8217 0
M  V30 5 O 1.1681 0.29 1.0536 0
M  V30 6 N -0.813 0.6685 -0.0178 0
M  V30 7 C -0.4468 2.0002 -0.4669 0
M  V30 8 C 0.2947 1.9347 -1.7925 0
M  V30 9 O 0.2378 1.0385 -2.6208 0
M  V30 10 O 1.013 3.049 -2.0418 0
M  V30 11 H 0.2317 -2.2801 -1.0946 0
M  V30 12 H -1.3753 -1.3737 1.6621 0
M  V30 13 H 0.818 -1.8318 2.7545 0
M  V30 14 H 0.1375 -3.3193 2.0887 0
M  V30 15 H 1.4653 -2.4845 1.2504 0
M  V30 16 H -1.6289 0.2246 -0.4259 0
M  V30 17 H 0.1917 2.4737 0.285 0
M  V30 18 H -1.3647 2.5787 -0.6003 0
M  V30 19 H 1.4358 2.8698 -2.908 0
M  V30 END ATOM
M  V30 BEGIN BOND
M  V30 1 1 1 2
M  V30 2 1 2 3
M  V30 3 1 2 4
M  V30 4 2 3 5
M  V30 5 1 3 6
M  V30 6 1 6 7
M  V30 7 1 7 8
M  V30 8 2 8 9
M  V30 9 1 8 10
M  V30 10 1 1 11
M  V30 11 1 2 12
M  V30 12 1 4 13
M  V30 13 1 4 14
M  V30 14 1 4 15
M  V30 15 1 6 16
M  V30 16 1 7 17
M  V30 17 1 7 18
M  V30 18 1 10 19
M  V30 END BOND
M  V30 BEGIN COLLECTION
M  V30 MDLV30/STERAC1 ATOMS=(1 2)
M  V30 END COLLECTION
M  V30 END CTAB
M  END
>  <level_0>
5144

>  <index>
5144

>  <NO.>
5145

>  <Name>
tiopronin

>  <SMILES>
CC(S)C(=O)NCC(=O)O

>  <logBB>


>  <Class>
-1

>  <MW>
163.03

>  <nHBAcc>
3

>  <nHBDon>
3

>  <SLogP>
-0.49

>  <TopoPSA>
66.4

>  <MMFF94 Energy>
10.703

$$$$
CC1(C)[C@@H](OC(=O)CCC(=O)O)CC[C@@]2(C)[C@H]1CC[C@]1(C)[C@@H]2C(=O)C=C2[C@@H]3C[C@@](C)(C(=O)O)CC[C@]3(C)CC[C@]21C
Actelion Java MolfileCreator 2.0

  0  0  0  0  0  0              0 V3000
M  V30 BEGIN CTAB
M  V30 COUNTS 91 95 0 0 0
M  V30 BEGIN ATOM
M  V30 1 O 1.3644 -2.5695 -0.3209 0
M  V30 2 C 0.5149 -1.8606 0.2132 0
M  V30 3 C -0.5283 -2.5415 1.0234 0
M  V30 4 C 0.4335 -0.3347 0.0464 0 CFG=1
M  V30 5 C -1.5259 -1.8904 1.6533 0
M  V30 6 C -0.1759 0.294 1.3569 0 CFG=2
M  V30 7 C 1.7328 0.3602 -0.5543 0 CFG=2
M  V30 8 C -1.6543 -0.3547 1.5924 0 CFG=2
M  V30 9 C -2.5599 -2.7252 2.4174 0 CFG=1
M  V30 10 C -0.249 1.8393 1.2224 0
M  V30 11 C 0.7425 0.0046 2.5898 0
M  V30 12 C 1.4352 1.9063 -0.6605 0 CFG=1
M  V30 13 C 1.9649 -0.1596 -2.0096 0
M  V30 14 C 2.9924 0.0302 0.2839 0
M  V30 15 C -2.3252 0.2406 2.8693 0
M  V30 16 C -2.6172 -0.0441 0.4035 0
M  V30 17 C -3.0278 -2.0623 3.7401 0 CFG=1
M  V30 18 C -3.7266 -3.1185 1.4806 0
M  V30 19 C 1.0342 2.4938 0.7059 0
M  V30 20 C 2.4875 2.7624 -1.4607 0
M  V30 21 C 3.0031 0.6286 -2.8057 0
M  V30 22 C -3.4573 -0.6042 3.4627 0
M  V30 23 C -4.2014 -2.8524 4.3751 0
M  V30 24 C -1.8779 -2.0833 4.7799 0
M  V30 25 C -4.8103 -3.974 2.1654 0 CFG=2
M  V30 26 C 2.6783 2.119 -2.8693 0 CFG=2
M  V30 27 C 3.8343 2.94 -0.7303 0
M  V30 28 C 1.9352 4.1975 -1.6924 0
M  V30 29 C -5.324 -3.2212 3.4066 0
M  V30 30 C -4.3026 -5.3615 2.554 0
M  V30 31 C -5.9791 -4.2002 1.191 0
M  V30 32 O 3.7464 2.796 -3.5666 0
M  V30 33 O -4.6561 -6.0192 3.5195 0
M  V30 34 O -3.4214 -5.8835 1.6803 0
M  V30 35 C 3.6667 2.8287 -4.9257 0
M  V30 36 O 2.7671 2.3425 -5.5952 0
M  V30 37 C 4.8595 3.5633 -5.4777 0
M  V30 38 C 4.8312 3.5955 -7.0002 0
M  V30 39 C 6.022 4.3292 -7.5423 0
M  V30 40 O 6.9098 4.8682 -6.9046 0
M  V30 41 O 6.033 4.35 -8.8886 0
M  V30 42 H -0.4355 -3.6231 1.0537 0
M  V30 43 H -0.3159 -0.2002 -0.7449 0
M  V30 44 H -2.0711 -3.6684 2.7052 0
M  V30 45 H -1.0439 2.136 0.5341 0
M  V30 46 H -0.5074 2.2934 2.1873 0
M  V30 47 H 1.7481 0.4019 2.4673 0
M  V30 48 H 0.8504 -1.0607 2.8066 0
M  V30 49 H 0.3747 0.4846 3.5006 0
M  V30 50 H 0.5206 1.9764 -1.2741 0
M  V30 51 H 2.283 -1.2066 -2.0063 0
M  V30 52 H 1.018 -0.1285 -2.565 0
M  V30 53 H 3.22 0.7946 1.029 0
M  V30 54 H 2.9014 -0.9202 0.8169 0
M  V30 55 H 3.8908 -0.0738 -0.3298 0
M  V30 56 H -2.7244 1.2385 2.6432 0
M  V30 57 H -1.6024 0.408 3.6688 0
M  V30 58 H -3.657 -0.2764 0.648 0
M  V30 59 H -2.3769 -0.6195 -0.4966 0
M  V30 60 H -2.6268 1.0122 0.1294 0
M  V30 61 H -3.3263 -3.6435 0.6028 0
M  V30 62 H -4.2114 -2.2219 1.0845 0
M  V30 63 H 1.8377 2.4047 1.4413 0
M  V30 64 H 0.8263 3.5649 0.6214 0
M  V30 65 H 4.0123 0.4752 -2.4088 0
M  V30 66 H 3.0465 0.2223 -3.8243 0
M  V30 67 H -4.3231 -0.5735 2.7928 0
M  V30 68 H -3.7891 -0.1301 4.3959 0
M  V30 69 H -4.6285 -2.2798 5.209 0
M  V30 70 H -3.8172 -3.7792 4.8207 0
M  V30 71 H -1.6081 -3.112 5.0461 0
M  V30 72 H -0.9655 -1.6063 4.4148 0
M  V30 73 H -2.1753 -1.5708 5.7021 0
M  V30 74 H 1.7389 2.2474 -3.4258 0
M  V30 75 H 4.4587 3.6911 -1.2292 0
M  V30 76 H 3.6914 3.285 0.2986 0
M  V30 77 H 4.4254 2.024 -0.702 0
M  V30 78 H 0.9244 4.1703 -2.1143 0
M  V30 79 H 2.5654 4.7629 -2.3886 0
M  V30 80 H 1.9003 4.7783 -0.7652 0
M  V30 81 H -5.8485 -2.3078 3.0989 0
M  V30 82 H -6.0648 -3.8274 3.944 0
M  V30 83 H -6.4294 -3.2512 0.8792 0
M  V30 84 H -5.647 -4.7258 0.2882 0
M  V30 85 H -6.7659 -4.8098 1.6508 0
M  V30 86 H -3.2292 -6.7753 2.0403 0
M  V30 87 H 5.7684 3.0583 -5.1306 0
M  V30 88 H 4.8511 4.5843 -5.0789 0
M  V30 89 H 4.8413 2.5746 -7.3983 0
M  V30 90 H 3.9241 4.1009 -7.3508 0
M  V30 91 H 6.845 4.8487 -9.1179 0
M  V30 END ATOM
M  V30 BEGIN BOND
M  V30 1 2 1 2
M  V30 2 1 2 3
M  V30 3 1 2 4
M  V30 4 2 3 5
M  V30 5 1 4 6
M  V30 6 1 4 7
M  V30 7 1 5 8
M  V30 8 1 5 9
M  V30 9 1 6 10
M  V30 10 1 6 11
M  V30 11 1 7 12
M  V30 12 1 7 13
M  V30 13 1 7 14
M  V30 14 1 8 15
M  V30 15 1 8 16
M  V30 16 1 9 17
M  V30 17 1 9 18
M  V30 18 1 10 19
M  V30 19 1 12 20
M  V30 20 1 13 21
M  V30 21 1 15 22
M  V30 22 1 17 23
M  V30 23 1 17 24
M  V30 24 1 18 25
M  V30 25 1 20 26
M  V30 26 1 20 27
M  V30 27 1 20 28
M  V30 28 1 23 29
M  V30 29 1 25 30
M  V30 30 1 25 31
M  V30 31 1 26 32
M  V30 32 2 30 33
M  V30 33 1 30 34
M  V30 34 1 32 35
M  V30 35 2 35 36
M  V30 36 1 35 37
M  V30 37 1 37 38
M  V30 38 1 38 39
M  V30 39 2 39 40
M  V30 40 1 39 41
M  V30 41 1 6 8
M  V30 42 1 12 19
M  V30 43 1 17 22
M  V30 44 1 21 26
M  V30 45 1 25 29
M  V30 46 1 3 42
M  V30 47 1 4 43
M  V30 48 1 9 44
M  V30 49 1 10 45
M  V30 50 1 10 46
M  V30 51 1 11 47
M  V30 52 1 11 48
M  V30 53 1 11 49
M  V30 54 1 12 50
M  V30 55 1 13 51
M  V30 56 1 13 52
M  V30 57 1 14 53
M  V30 58 1 14 54
M  V30 59 1 14 55
M  V30 60 1 15 56
M  V30 61 1 15 57
M  V30 62 1 16 58
M  V30 63 1 16 59
M  V30 64 1 16 60
M  V30 65 1 18 61
M  V30 66 1 18 62
M  V30 67 1 19 63
M  V30 68 1 19 64
M  V30 69 1 21 65
M  V30 70 1 21 66
M  V30 71 1 22 67
M  V30 72 1 22 68
M  V30 73 1 23 69
M  V30 74 1 23 70
M  V30 75 1 24 71
M  V30 76 1 24 72
M  V30 77 1 24 73
M  V30 78 1 26 74
M  V30 79 1 27 75
M  V30 80 1 27 76
M  V30 81 1 27 77
M  V30 82 1 28 78
M  V30 83 1 28 79
M  V30 84 1 28 80
M  V30 85 1 29 81
M  V30 86 1 29 82
M  V30 87 1 31 83
M  V30 88 1 31 84
M  V30 89 1 31 85
M  V30 90 1 34 86
M  V30 91 1 37 87
M  V30 92 1 37 88
M  V30 93 1 38 89
M  V30 94 1 38 90
M  V30 95 1 41 91
M  V30 END BOND
M  V30 BEGIN COLLECTION
M  V30 MDLV30/STEABS ATOMS=(9 4 6 7 8 9 12 17 25 26)
M  V30 END COLLECTION
M  V30 END CTAB
M  END
>  <level_0>
5147

>  <index>
5147

>  <NO.>
5148

>  <Name>
carbenoxolone

>  <SMILES>
CC1(C)[C@@H](OC(=O)CCC(=O)O)CC[C@@]2(C)[C@H]1CC[C@]1(C)[C@@H]2C(=O)C=C2[C@@H]3C[C@@](C)(C(=O)O)CC[C@]3(C)CC[C@]21C

>  <logBB>


>  <Class>
-1

>  <MW>
570.36

>  <nHBAcc>
5

>  <nHBDon>
2

>  <SLogP>
6.83

>  <TopoPSA>
117.97

>  <MMFF94 Energy>
71.91

$$$$
CC12C=CC(=O)NC1CCC1C2CCC2(C)C(C(=O)Nc3cc(C(F)(F)F)ccc3C(F)(F)F)CCC12
Actelion Java MolfileCreator 2.0

  0  0  0  0  0  0              0 V3000
M  V30 BEGIN CTAB
M  V30 COUNTS 67 71 0 0 0
M  V30 BEGIN ATOM
M  V30 1 F -2.7721 3.3435 3.5885 0
M  V30 2 C -2.6662 2.0488 3.1784 0
M  V30 3 F -1.9067 2.0895 2.0415 0
M  V30 4 F -3.9118 1.6795 2.7746 0
M  V30 5 C -2.1026 1.1328 4.2346 0
M  V30 6 C -1.3498 -0.0131 3.9163 0
M  V30 7 C -2.3938 1.4093 5.585 0
M  V30 8 N -1.0392 -0.2994 2.5679 0
M  V30 9 C -0.8722 -0.8284 4.9527 0
M  V30 10 C -1.9252 0.5817 6.605 0
M  V30 11 C -0.7937 -1.5548 2.0319 0
M  V30 12 C -1.1493 -0.5409 6.2997 0
M  V30 13 O -0.8594 -2.6098 2.6533 0
M  V30 14 C -0.4197 -1.4937 0.545 0
M  V30 15 C -0.6433 -1.4535 7.391 0
M  V30 16 C 1.0703 -1.1526 0.261 0
M  V30 17 C -0.6718 -2.8301 -0.1842 0
M  V30 18 F -1.4588 -2.5229 7.5954 0
M  V30 19 F 0.593 -1.9612 7.1315 0
M  V30 20 F -0.5382 -0.8286 8.5983 0
M  V30 21 C 1.2953 -1.7522 -1.1551 0
M  V30 22 C 1.4113 0.3469 0.3211 0
M  V30 23 C 1.9964 -1.8685 1.2828 0
M  V30 24 C 0.529 -3.0773 -1.0991 0
M  V30 25 C 0.9207 -0.8531 -2.3738 0
M  V30 26 C 0.9497 1.1726 -0.8761 0
M  V30 27 C 1.4867 0.5783 -2.1953 0
M  V30 28 C -0.5683 -0.8046 -2.7596 0
M  V30 29 C 1.2513 1.4866 -3.4548 0
M  V30 30 C -0.7956 0.0131 -4.0221 0
M  V30 31 C 2.1354 1.0283 -4.6155 0
M  V30 32 C -0.2329 1.4405 -3.9298 0
M  V30 33 C 1.6647 2.9499 -3.1599 0
M  V30 34 C 1.7777 1.2018 -5.8991 0
M  V30 35 N -0.3815 2.0704 -5.2373 0
M  V30 36 C 0.5107 1.8873 -6.2568 0
M  V30 37 O 0.2918 2.2676 -7.3989 0
M  V30 38 H -2.9962 2.2798 5.8475 0
M  V30 39 H -1.072 0.4771 1.9131 0
M  V30 40 H -0.2617 -1.7034 4.73 0
M  V30 41 H -2.1667 0.818 7.6412 0
M  V30 42 H -1.072 -0.7382 0.0939 0
M  V30 43 H -1.5929 -2.757 -0.774 0
M  V30 44 H -0.8073 -3.683 0.4886 0
M  V30 45 H 2.3648 -1.9762 -1.2776 0
M  V30 46 H 2.5032 0.4594 0.3833 0
M  V30 47 H 1.0239 0.798 1.2406 0
M  V30 48 H 1.914 -1.4162 2.2778 0
M  V30 49 H 3.0469 -1.7903 0.9794 0
M  V30 50 H 1.7651 -2.9334 1.3858 0
M  V30 51 H 0.2381 -3.4597 -2.082 0
M  V30 52 H 1.165 -3.8511 -0.6513 0
M  V30 53 H 1.4349 -1.3091 -3.2329 0
M  V30 54 H 1.3373 2.185 -0.723 0
M  V30 55 H -0.1411 1.2597 -0.8854 0
M  V30 56 H 2.5765 0.4836 -2.0691 0
M  V30 57 H -0.9523 -1.8117 -2.9498 0
M  V30 58 H -1.182 -0.3794 -1.9632 0
M  V30 59 H -1.8722 0.0612 -4.2315 0
M  V30 60 H -0.3562 -0.5252 -4.8719 0
M  V30 61 H 3.1041 0.5888 -4.3928 0
M  V30 62 H -0.8593 2.0153 -3.236 0
M  V30 63 H 1.6923 3.5656 -4.0669 0
M  V30 64 H 2.6638 2.9952 -2.7102 0
M  V30 65 H 0.9605 3.4386 -2.4779 0
M  V30 66 H 2.4175 0.9191 -6.726 0
M  V30 67 H -1.2412 2.5411 -5.4907 0
M  V30 END ATOM
M  V30 BEGIN BOND
M  V30 1 1 1 2
M  V30 2 1 2 3
M  V30 3 1 2 4
M  V30 4 1 2 5
M  V30 5 2 5 6
M  V30 6 1 5 7
M  V30 7 1 6 8
M  V30 8 1 6 9
M  V30 9 2 7 10
M  V30 10 1 8 11
M  V30 11 2 9 12
M  V30 12 2 11 13
M  V30 13 1 11 14
M  V30 14 1 12 15
M  V30 15 1 14 16
M  V30 16 1 14 17
M  V30 17 1 15 18
M  V30 18 1 15 19
M  V30 19 1 15 20
M  V30 20 1 16 21
M  V30 21 1 16 22
M  V30 22 1 16 23
M  V30 23 1 17 24
M  V30 24 1 21 25
M  V30 25 1 22 26
M  V30 26 1 25 27
M  V30 27 1 25 28
M  V30 28 1 27 29
M  V30 29 1 28 30
M  V30 30 1 29 31
M  V30 31 1 29 32
M  V30 32 1 29 33
M  V30 33 2 31 34
M  V30 34 1 32 35
M  V30 35 1 34 36
M  V30 36 2 36 37
M  V30 37 1 10 12
M  V30 38 1 21 24
M  V30 39 1 26 27
M  V30 40 1 30 32
M  V30 41 1 35 36
M  V30 42 1 7 38
M  V30 43 1 8 39
M  V30 44 1 9 40
M  V30 45 1 10 41
M  V30 46 1 14 42
M  V30 47 1 17 43
M  V30 48 1 17 44
M  V30 49 1 21 45
M  V30 50 1 22 46
M  V30 51 1 22 47
M  V30 52 1 23 48
M  V30 53 1 23 49
M  V30 54 1 23 50
M  V30 55 1 24 51
M  V30 56 1 24 52
M  V30 57 1 25 53
M  V30 58 1 26 54
M  V30 59 1 26 55
M  V30 60 1 27 56
M  V30 61 1 28 57
M  V30 62 1 28 58
M  V30 63 1 30 59
M  V30 64 1 30 60
M  V30 65 1 31 61
M  V30 66 1 32 62
M  V30 67 1 33 63
M  V30 68 1 33 64
M  V30 69 1 33 65
M  V30 70 1 34 66
M  V30 71 1 35 67
M  V30 END BOND
M  V30 END CTAB
M  END
>  <level_0>
5149

>  <index>
5149

>  <NO.>
5150

>  <Name>
dutasteride

>  <SMILES>
CC12C=CC(=O)NC1CCC1C2CCC2(C)C(C(=O)Nc3cc(C(F)(F)F)ccc3C(F)(F)F)CCC12

>  <logBB>


>  <Class>
-1

>  <MW>
528.22

>  <nHBAcc>
2

>  <nHBDon>
2

>  <SLogP>
6.58

>  <TopoPSA>
58.2

>  <MMFF94 Energy>
100.79

$$$$
CC12CCC3c4ccc(OC(=O)N(CCCl)CCCl)cc4CCC3C1CCC2O
Actelion Java MolfileCreator 2.0

  0  0  0  0  0  0              0 V3000
M  V30 BEGIN CTAB
M  V30 COUNTS 60 63 0 0 0
M  V30 BEGIN ATOM
M  V30 1 Cl -7.2282 -0.405 -5.1125 0
M  V30 2 C -6.5132 -0.1737 -3.5 0
M  V30 3 C -5.8821 1.2116 -3.3821 0
M  V30 4 N -5.3756 1.4712 -2.0325 0
M  V30 5 C -4.1232 0.9768 -1.6856 0
M  V30 6 C -6.2217 2.2119 -1.0916 0
M  V30 7 O -3.4379 0.3053 -2.4489 0
M  V30 8 O -3.7639 1.3247 -0.3868 0
M  V30 9 C -5.8203 3.6789 -0.9175 0
M  V30 10 C -2.4954 0.9062 0.0283 0
M  V30 11 Cl -6.1462 4.6372 -2.3828 0
M  V30 12 C -1.3436 1.433 -0.5464 0
M  V30 13 C -2.4186 0.0296 1.1005 0
M  V30 14 C -0.0799 1.0452 -0.07 0
M  V30 15 C -1.1652 -0.3659 1.571 0
M  V30 16 C 0.0228 0.1028 0.977 0
M  V30 17 C 1.1356 1.634 -0.7391 0
M  V30 18 C 1.389 -0.3215 1.5176 0
M  V30 19 C 2.415 1.4445 0.067 0
M  V30 20 C 2.535 -0.0189 0.5181 0
M  V30 21 C 1.4732 -1.8033 1.9216 0
M  V30 22 C 3.9303 -0.3142 1.1281 0
M  V30 23 C 2.8062 -2.1166 2.5949 0
M  V30 24 C 4.0471 -1.7138 1.7828 0
M  V30 25 C 5.0257 -0.3509 0.0401 0
M  V30 26 C 4.2684 -2.6189 0.5522 0
M  V30 27 C 5.2627 -1.7704 2.7406 0
M  V30 28 C 5.1989 -1.8194 -0.3583 0
M  V30 29 O 4.8293 -3.8734 0.8949 0
M  V30 30 H -7.3109 -0.3038 -2.7619 0
M  V30 31 H -5.7741 -0.9648 -3.342 0
M  V30 32 H -6.6061 1.9907 -3.6436 0
M  V30 33 H -5.048 1.2948 -4.0892 0
M  V30 34 H -7.2683 2.1243 -1.4061 0
M  V30 35 H -6.1481 1.7171 -0.1159 0
M  V30 36 H -4.7571 3.7856 -0.6855 0
M  V30 37 H -6.398 4.1299 -0.1053 0
M  V30 38 H -1.4239 2.1418 -1.3666 0
M  V30 39 H -3.3209 -0.3466 1.5721 0
M  V30 40 H -1.1376 -1.0416 2.4212 0
M  V30 41 H 1.2497 1.1578 -1.721 0
M  V30 42 H 0.9844 2.7072 -0.9074 0
M  V30 43 H 1.5497 0.287 2.42 0
M  V30 44 H 3.2636 1.755 -0.5499 0
M  V30 45 H 2.4073 2.1055 0.9439 0
M  V30 46 H 2.4007 -0.654 -0.3699 0
M  V30 47 H 1.3195 -2.4468 1.0471 0
M  V30 48 H 0.6869 -2.0681 2.6359 0
M  V30 49 H 4.1585 0.472 1.8595 0
M  V30 50 H 2.8197 -1.59 3.5592 0
M  V30 51 H 2.8434 -3.1871 2.8328 0
M  V30 52 H 5.9695 0.0246 0.4537 0
M  V30 53 H 4.8025 0.2649 -0.8349 0
M  V30 54 H 3.327 -2.8119 0.0266 0
M  V30 55 H 5.1647 -1.0228 3.5363 0
M  V30 56 H 6.2114 -1.5793 2.2296 0
M  V30 57 H 5.3423 -2.7522 3.221 0
M  V30 58 H 4.9277 -1.9748 -1.4085 0
M  V30 59 H 6.2446 -2.1305 -0.2539 0
M  V30 60 H 4.9992 -4.3531 0.0662 0
M  V30 END ATOM
M  V30 BEGIN BOND
M  V30 1 1 1 2
M  V30 2 1 2 3
M  V30 3 1 3 4
M  V30 4 1 4 5
M  V30 5 1 4 6
M  V30 6 2 5 7
M  V30 7 1 5 8
M  V30 8 1 6 9
M  V30 9 1 8 10
M  V30 10 1 9 11
M  V30 11 2 10 12
M  V30 12 1 10 13
M  V30 13 1 12 14
M  V30 14 2 13 15
M  V30 15 2 14 16
M  V30 16 1 14 17
M  V30 17 1 16 18
M  V30 18 1 17 19
M  V30 19 1 18 20
M  V30 20 1 18 21
M  V30 21 1 20 22
M  V30 22 1 21 23
M  V30 23 1 22 24
M  V30 24 1 22 25
M  V30 25 1 24 26
M  V30 26 1 24 27
M  V30 27 1 25 28
M  V30 28 1 26 29
M  V30 29 1 15 16
M  V30 30 1 19 20
M  V30 31 1 23 24
M  V30 32 1 26 28
M  V30 33 1 2 30
M  V30 34 1 2 31
M  V30 35 1 3 32
M  V30 36 1 3 33
M  V30 37 1 6 34
M  V30 38 1 6 35
M  V30 39 1 9 36
M  V30 40 1 9 37
M  V30 41 1 12 38
M  V30 42 1 13 39
M  V30 43 1 15 40
M  V30 44 1 17 41
M  V30 45 1 17 42
M  V30 46 1 18 43
M  V30 47 1 19 44
M  V30 48 1 19 45
M  V30 49 1 20 46
M  V30 50 1 21 47
M  V30 51 1 21 48
M  V30 52 1 22 49
M  V30 53 1 23 50
M  V30 54 1 23 51
M  V30 55 1 25 52
M  V30 56 1 25 53
M  V30 57 1 26 54
M  V30 58 1 27 55
M  V30 59 1 27 56
M  V30 60 1 27 57
M  V30 61 1 28 58
M  V30 62 1 28 59
M  V30 63 1 29 60
M  V30 END BOND
M  V30 END CTAB
M  END
>  <level_0>
5155

>  <index>
5155

>  <NO.>
5156

>  <Name>
estramustine

>  <SMILES>
CC12CCC3c4ccc(OC(=O)N(CCCl)CCCl)cc4CCC3C1CCC2O

>  <logBB>


>  <Class>
-1

>  <MW>
439.17

>  <nHBAcc>
3

>  <nHBDon>
1

>  <SLogP>
5.18

>  <TopoPSA>
49.77

>  <MMFF94 Energy>
63.629

$$$$
CC1C=CC=CCCC=CC=CC=CC=CC(OC2OC(C)C(O)C(N)C2O)CC(O)C(C(=O)O)C(O)CC(=O)CC(O)C(O)CCC(O)CC(O)CC(O)CC(=O)OC(C)C(C)C1O
Actelion Java MolfileCreator 2.0

  0  0  0  0  0  0              0 V3000
M  V30 BEGIN CTAB
M  V30 COUNTS 140 141 0 0 0
M  V30 BEGIN ATOM
M  V30 1 O -2.8366 2.2057 0.866 0
M  V30 2 C -3.8474 1.6122 1.2264 0
M  V30 3 O -4.6191 0.8268 0.4259 0
M  V30 4 C -4.3558 1.5948 2.6401 0
M  V30 5 C -4.225 0.7478 -0.9738 0
M  V30 6 C -3.8942 0.311 3.3333 0
M  V30 7 C -5.4918 0.3741 -1.7965 0
M  V30 8 C -3.0906 -0.275 -1.0653 0
M  V30 9 O -5.0501 -0.4769 3.6466 0
M  V30 10 C -3.1474 0.5671 4.6514 0
M  V30 11 C -5.3291 0.2153 -3.336 0
M  V30 12 C -6.6662 1.2971 -1.4432 0
M  V30 13 C -1.6487 0.8533 4.4641 0
M  V30 14 O -4.2998 -0.7464 -3.6013 0
M  V30 15 C -5.1408 1.4552 -4.2662 0
M  V30 16 O -1.4895 1.9416 3.563 0
M  V30 17 C -0.998 1.2052 5.8084 0
M  V30 18 C -4.2218 2.5322 -3.7403 0
M  V30 19 C -6.4798 2.0899 -4.6711 0
M  V30 20 C 0.5325 1.0776 5.8336 0
M  V30 21 C -2.8966 2.6735 -3.902 0
M  V30 22 O 0.9648 1.3504 7.1671 0
M  V30 23 C 1.3108 1.9581 4.8483 0
M  V30 24 C -1.9696 1.794 -4.5671 0
M  V30 25 C 1.2111 3.4645 5.1155 0
M  V30 26 C -2.0536 1.3661 -5.835 0
M  V30 27 C 1.6842 4.3194 3.9287 0
M  V30 28 C -1.0133 0.4722 -6.4549 0
M  V30 29 O 1.6085 5.6951 4.3127 0
M  V30 30 C 3.1201 4.0175 3.4493 0
M  V30 31 C -1.5494 -0.9462 -6.6794 0
M  V30 32 O 4.0276 4.3252 4.5167 0
M  V30 33 C 3.4846 4.8403 2.209 0
M  V30 34 C -0.4684 -1.984 -6.5297 0
M  V30 35 C 4.3704 4.0159 1.2936 0
M  V30 36 C -0.1084 -2.6158 -5.3987 0
M  V30 37 O 5.5825 4.2489 1.2497 0
M  V30 38 C 3.7987 2.7956 0.5753 0
M  V30 39 C -0.6813 -2.3744 -4.0921 0
M  V30 40 C 2.335 2.92 0.1474 0
M  V30 41 C -0.3839 -2.9828 -2.9335 0
M  V30 42 O 2.2861 3.9671 -0.8321 0
M  V30 43 C 1.6806 1.6385 -0.4343 0
M  V30 44 C 0.5679 -4.0487 -2.7057 0
M  V30 45 C 0.1919 1.8836 -0.4011 0
M  V30 46 C 2.0389 0.3183 0.2771 0
M  V30 47 C 0.822 -4.6229 -1.5182 0
M  V30 48 O -0.4844 2.2018 -1.3647 0
M  V30 49 O -0.3414 1.8122 0.8357 0
M  V30 50 O 3.3968 -0.0059 -0.0383 0
M  V30 51 C 1.1307 -0.8774 -0.0933 0
M  V30 52 C 0.231 -4.2678 -0.2514 0
M  V30 53 C 1.677 -2.217 0.4385 0
M  V30 54 C 0.5662 -3.2379 0.543 0
M  V30 55 O 2.722 -2.6375 -0.4401 0
M  V30 56 C 3.8389 -3.2205 0.2474 0
M  V30 57 O 3.457 -4.4459 0.8671 0
M  V30 58 C 4.918 -3.4705 -0.8271 0
M  V30 59 C 4.5438 -5.1085 1.5251 0
M  V30 60 O 4.3614 -4.3036 -1.8761 0
M  V30 61 C 6.134 -4.1819 -0.2055 0
M  V30 62 C 5.6749 -5.4592 0.5368 0
M  V30 63 C 3.9694 -6.3483 2.2001 0
M  V30 64 N 7.1323 -4.4895 -1.2523 0
M  V30 65 O 5.2449 -6.4513 -0.4053 0
M  V30 66 H -5.4477 1.692 2.6182 0
M  V30 67 H -3.9769 2.4989 3.1293 0
M  V30 68 H -3.8636 1.7327 -1.2791 0
M  V30 69 H -3.2675 -0.3095 2.6817 0
M  V30 70 H -5.7871 -0.6208 -1.4286 0
M  V30 71 H -2.3579 -0.1376 -0.2641 0
M  V30 72 H -2.5494 -0.1972 -2.0101 0
M  V30 73 H -3.4732 -1.2953 -0.9549 0
M  V30 74 H -5.4931 -0.7069 2.8101 0
M  V30 75 H -3.2584 -0.3059 5.3079 0
M  V30 76 H -3.6297 1.4005 5.1794 0
M  V30 77 H -6.2418 -0.2891 -3.6804 0
M  V30 78 H -6.4127 2.3495 -1.5985 0
M  V30 79 H -6.9571 1.1814 -0.3935 0
M  V30 80 H -7.55 1.0542 -2.042 0
M  V30 81 H -1.168 -0.0332 4.0328 0
M  V30 82 H -3.5485 -0.2749 -4.0038 0
M  V30 83 H -4.723 1.0785 -5.2074 0
M  V30 84 H -0.9446 1.6485 2.809 0
M  V30 85 H -1.3898 0.5381 6.5884 0
M  V30 86 H -1.2887 2.217 6.1172 0
M  V30 87 H -4.7086 3.3035 -3.1412 0
M  V30 88 H -6.3256 2.8474 -5.4487 0
M  V30 89 H -6.9835 2.583 -3.8357 0
M  V30 90 H -7.1605 1.3366 -5.0816 0
M  V30 91 H 0.7888 0.0308 5.6295 0
M  V30 92 H -2.4118 3.5115 -3.3972 0
M  V30 93 H 1.9368 1.3251 7.1855 0
M  V30 94 H 2.3697 1.6794 4.9272 0
M  V30 95 H 1.013 1.7264 3.8214 0
M  V30 96 H -1.1013 1.5239 -3.9651 0
M  V30 97 H 0.1765 3.7505 5.3372 0
M  V30 98 H 1.7818 3.7227 6.0165 0
M  V30 99 H -2.8815 1.671 -6.4701 0
M  V30 100 H 0.982 4.1759 3.0996 0
M  V30 101 H -0.1175 0.4545 -5.8204 0
M  V30 102 H -0.6977 0.9054 -7.4117 0
M  V30 103 H 2.3484 5.8312 4.9379 0
M  V30 104 H 3.2185 2.948 3.2476 0
M  V30 105 H -1.9709 -1.0228 -7.6897 0
M  V30 106 H -2.3835 -1.1735 -6.0049 0
M  V30 107 H 4.9349 4.2966 4.1564 0
M  V30 108 H 4.0324 5.75 2.483 0
M  V30 109 H 2.6093 5.1629 1.6383 0
M  V30 110 H 0.0606 -2.2424 -7.4458 0
M  V30 111 H 0.6881 -3.3522 -5.4689 0
M  V30 112 H 4.4253 2.6222 -0.3077 0
M  V30 113 H 3.9348 1.9658 1.2742 0
M  V30 114 H -1.4474 -1.6042 -4.0367 0
M  V30 115 H 1.7403 3.2623 0.9986 0
M  V30 116 H -0.9425 -2.6505 -2.0593 0
M  V30 117 H 1.3719 4.0765 -1.1553 0
M  V30 118 H 1.9666 1.5506 -1.4916 0
M  V30 119 H 1.0909 -4.4462 -3.5714 0
M  V30 120 H 1.9913 0.461 1.3637 0
M  V30 121 H 1.5108 -5.4657 -1.4769 0
M  V30 122 H -1.289 2.1063 0.7012 0
M  V30 123 H 3.4035 -0.4435 -0.913 0
M  V30 124 H 1.056 -0.9313 -1.1869 0
M  V30 125 H 0.1244 -0.7012 0.3025 0
M  V30 126 H -0.5672 -4.9358 0.0701 0
M  V30 127 H 2.0724 -2.0586 1.451 0
M  V30 128 H -0.0229 -3.1347 1.4541 0
M  V30 129 H 4.216 -2.5192 1.0027 0
M  V30 130 H 5.2086 -2.5251 -1.3 0
M  V30 131 H 4.9317 -4.4379 2.3027 0
M  V30 132 H 3.4655 -3.9325 -2.0238 0
M  V30 133 H 6.6045 -3.5086 0.5212 0
M  V30 134 H 6.5175 -5.8944 1.0867 0
M  V30 135 H 4.7479 -6.9156 2.7187 0
M  V30 136 H 3.2046 -6.0606 2.93 0
M  V30 137 H 3.4738 -7.0043 1.4765 0
M  V30 138 H 6.6113 -4.8628 -2.0544 0
M  V30 139 H 7.7045 -5.2782 -0.9464 0
M  V30 140 H 4.6764 -5.9839 -1.0552 0
M  V30 END ATOM
M  V30 BEGIN BOND
M  V30 1 2 1 2
M  V30 2 1 2 3
M  V30 3 1 2 4
M  V30 4 1 3 5
M  V30 5 1 4 6
M  V30 6 1 5 7
M  V30 7 1 5 8
M  V30 8 1 6 9
M  V30 9 1 6 10
M  V30 10 1 7 11
M  V30 11 1 7 12
M  V30 12 1 10 13
M  V30 13 1 11 14
M  V30 14 1 11 15
M  V30 15 1 13 16
M  V30 16 1 13 17
M  V30 17 1 15 18
M  V30 18 1 15 19
M  V30 19 1 17 20
M  V30 20 2 18 21
M  V30 21 1 20 22
M  V30 22 1 20 23
M  V30 23 1 21 24
M  V30 24 1 23 25
M  V30 25 2 24 26
M  V30 26 1 25 27
M  V30 27 1 26 28
M  V30 28 1 27 29
M  V30 29 1 27 30
M  V30 30 1 28 31
M  V30 31 1 30 32
M  V30 32 1 30 33
M  V30 33 1 31 34
M  V30 34 1 33 35
M  V30 35 2 34 36
M  V30 36 2 35 37
M  V30 37 1 35 38
M  V30 38 1 36 39
M  V30 39 1 38 40
M  V30 40 2 39 41
M  V30 41 1 40 42
M  V30 42 1 40 43
M  V30 43 1 41 44
M  V30 44 1 43 45
M  V30 45 1 43 46
M  V30 46 2 44 47
M  V30 47 2 45 48
M  V30 48 1 45 49
M  V30 49 1 46 50
M  V30 50 1 46 51
M  V30 51 1 47 52
M  V30 52 1 51 53
M  V30 53 2 52 54
M  V30 54 1 53 55
M  V30 55 1 55 56
M  V30 56 1 56 57
M  V30 57 1 56 58
M  V30 58 1 57 59
M  V30 59 1 58 60
M  V30 60 1 58 61
M  V30 61 1 59 62
M  V30 62 1 59 63
M  V30 63 1 61 64
M  V30 64 1 62 65
M  V30 65 1 53 54
M  V30 66 1 61 62
M  V30 67 1 4 66
M  V30 68 1 4 67
M  V30 69 1 5 68
M  V30 70 1 6 69
M  V30 71 1 7 70
M  V30 72 1 8 71
M  V30 73 1 8 72
M  V30 74 1 8 73
M  V30 75 1 9 74
M  V30 76 1 10 75
M  V30 77 1 10 76
M  V30 78 1 11 77
M  V30 79 1 12 78
M  V30 80 1 12 79
M  V30 81 1 12 80
M  V30 82 1 13 81
M  V30 83 1 14 82
M  V30 84 1 15 83
M  V30 85 1 16 84
M  V30 86 1 17 85
M  V30 87 1 17 86
M  V30 88 1 18 87
M  V30 89 1 19 88
M  V30 90 1 19 89
M  V30 91 1 19 90
M  V30 92 1 20 91
M  V30 93 1 21 92
M  V30 94 1 22 93
M  V30 95 1 23 94
M  V30 96 1 23 95
M  V30 97 1 24 96
M  V30 98 1 25 97
M  V30 99 1 25 98
M  V30 100 1 26 99
M  V30 101 1 27 100
M  V30 102 1 28 101
M  V30 103 1 28 102
M  V30 104 1 29 103
M  V30 105 1 30 104
M  V30 106 1 31 105
M  V30 107 1 31 106
M  V30 108 1 32 107
M  V30 109 1 33 108
M  V30 110 1 33 109
M  V30 111 1 34 110
M  V30 112 1 36 111
M  V30 113 1 38 112
M  V30 114 1 38 113
M  V30 115 1 39 114
M  V30 116 1 40 115
M  V30 117 1 41 116
M  V30 118 1 42 117
M  V30 119 1 43 118
M  V30 120 1 44 119
M  V30 121 1 46 120
M  V30 122 1 47 121
M  V30 123 1 49 122
M  V30 124 1 50 123
M  V30 125 1 51 124
M  V30 126 1 51 125
M  V30 127 1 52 126
M  V30 128 1 53 127
M  V30 129 1 54 128
M  V30 130 1 56 129
M  V30 131 1 58 130
M  V30 132 1 59 131
M  V30 133 1 60 132
M  V30 134 1 61 133
M  V30 135 1 62 134
M  V30 136 1 63 135
M  V30 137 1 63 136
M  V30 138 1 63 137
M  V30 139 1 64 138
M  V30 140 1 64 139
M  V30 141 1 65 140
M  V30 END BOND
M  V30 END CTAB
M  END
>  <level_0>
5161

>  <index>
5161

>  <NO.>
5162

>  <Name>
nystatin

>  <SMILES>
CC1C=CC=CCCC=CC=CC=CC=CC(OC2OC(C)C(O)C(N)C2O)CC(O)C(C(=O)O)C(O)CC(=O)CC(O)C(O)CCC(O)CC(O)CC(O)CC(=O)OC(C)C(C)C1O

>  <logBB>


>  <Class>
-1

>  <MW>
925.5

>  <nHBAcc>
17

>  <nHBDon>
12

>  <SLogP>
0.78

>  <TopoPSA>
327.45

>  <MMFF94 Energy>
160.86

$$$$
CC1CCC(O)CC1=CC=C1CCCC2(C)C1CCC2C(C)C=CC(C)C(C)C
Actelion Java MolfileCreator 2.0

  0  0  0  0  0  0              0 V3000
M  V30 BEGIN CTAB
M  V30 COUNTS 75 77 0 0 0
M  V30 BEGIN ATOM
M  V30 1 O 0.0788 1.8138 6.0034 0
M  V30 2 C -0.899 1.0942 5.2544 0
M  V30 3 C -1.1404 1.7854 3.9083 0
M  V30 4 C -2.1856 0.9902 6.0726 0
M  V30 5 C -2.2697 1.1375 3.1285 0
M  V30 6 C -3.295 0.3072 5.2769 0
M  V30 7 C -2.0589 0.7454 1.8549 0
M  V30 8 C -3.5651 0.9664 3.911 0
M  V30 9 C -3.0283 0.1516 0.9578 0
M  V30 10 C -4.2986 2.3032 4.0581 0
M  V30 11 C -2.7849 -0.3867 -0.2555 0
M  V30 12 C -1.4169 -0.5441 -0.8958 0
M  V30 13 C -3.9392 -0.9187 -1.0798 0
M  V30 14 C -1.1466 -1.9479 -1.5101 0
M  V30 15 C -1.1511 0.4615 -2.0247 0
M  V30 16 C -3.6947 -2.3543 -1.5308 0
M  V30 17 C 0.0386 -1.6509 -2.5046 0
M  V30 18 C -2.3815 -2.4756 -2.3025 0
M  V30 19 C -0.8335 -2.9591 -0.3932 0
M  V30 20 C -0.4105 -0.3012 -3.1196 0
M  V30 21 C 1.4731 -1.5978 -1.8765 0
M  V30 22 C 2.4475 -0.7603 -2.6815 0
M  V30 23 C 2.1092 -2.9946 -1.7795 0
M  V30 24 C 3.0876 0.3152 -2.1934 0
M  V30 25 C 4.0528 1.157 -2.9977 0
M  V30 26 C 5.5118 1.1107 -2.4636 0
M  V30 27 C 3.5181 2.5909 -3.0853 0
M  V30 28 C 5.6796 1.6448 -1.0371 0
M  V30 29 C 6.0973 -0.3039 -2.5548 0
M  V30 30 H -0.2765 2.7004 6.1868 0
M  V30 31 H -0.4961 0.0891 5.0811 0
M  V30 32 H -1.375 2.8455 4.0709 0
M  V30 33 H -0.2007 1.7874 3.3411 0
M  V30 34 H -2.5078 1.9874 6.3976 0
M  V30 35 H -1.9893 0.4316 6.996 0
M  V30 36 H -3.0117 -0.7412 5.1133 0
M  V30 37 H -4.2145 0.2888 5.8745 0
M  V30 38 H -1.0707 0.9203 1.4347 0
M  V30 39 H -4.2474 0.2899 3.3852 0
M  V30 40 H -4.0625 0.1804 1.2935 0
M  V30 41 H -3.7139 3.0425 4.6148 0
M  V30 42 H -5.2477 2.1638 4.5871 0
M  V30 43 H -4.5272 2.7304 3.0753 0
M  V30 44 H -0.6397 -0.3769 -0.141 0
M  V30 45 H -4.8823 -0.883 -0.5209 0
M  V30 46 H -4.0784 -0.2757 -1.9575 0
M  V30 47 H -0.5304 1.2834 -1.6478 0
M  V30 48 H -2.0628 0.9146 -2.429 0
M  V30 49 H -4.5214 -2.6767 -2.1752 0
M  V30 50 H -3.6973 -3.0278 -0.6664 0
M  V30 51 H 0.0523 -2.4055 -3.3028 0
M  V30 52 H -2.5073 -1.9366 -3.2477 0
M  V30 53 H -2.2215 -3.5244 -2.5831 0
M  V30 54 H 0.0143 -2.6455 0.223 0
M  V30 55 H -0.6169 -3.9484 -0.8092 0
M  V30 56 H -1.6756 -3.0777 0.2965 0
M  V30 57 H 0.388 0.3039 -3.5541 0
M  V30 58 H -1.1004 -0.4906 -3.9511 0
M  V30 59 H 1.4107 -1.1809 -0.8643 0
M  V30 60 H 2.6223 -1.0687 -3.7112 0
M  V30 61 H 3.1273 -2.9326 -1.3758 0
M  V30 62 H 2.1731 -3.4726 -2.7642 0
M  V30 63 H 1.5555 -3.6673 -1.1244 0
M  V30 64 H 2.906 0.6218 -1.1648 0
M  V30 65 H 4.0795 0.7748 -4.0282 0
M  V30 66 H 6.1192 1.7487 -3.1202 0
M  V30 67 H 4.2054 3.2285 -3.6514 0
M  V30 68 H 3.3724 3.0393 -2.0968 0
M  V30 69 H 2.5498 2.611 -3.599 0
M  V30 70 H 6.7356 1.6266 -0.7449 0
M  V30 71 H 5.3408 2.6817 -0.9547 0
M  V30 72 H 5.1273 1.0431 -0.3084 0
M  V30 73 H 7.1623 -0.2963 -2.2984 0
M  V30 74 H 5.5963 -0.9967 -1.8706 0
M  V30 75 H 6.0047 -0.6994 -3.5718 0
M  V30 END ATOM
M  V30 BEGIN BOND
M  V30 1 1 1 2
M  V30 2 1 2 3
M  V30 3 1 2 4
M  V30 4 1 3 5
M  V30 5 1 4 6
M  V30 6 2 5 7
M  V30 7 1 5 8
M  V30 8 1 7 9
M  V30 9 1 8 10
M  V30 10 2 9 11
M  V30 11 1 11 12
M  V30 12 1 11 13
M  V30 13 1 12 14
M  V30 14 1 12 15
M  V30 15 1 13 16
M  V30 16 1 14 17
M  V30 17 1 14 18
M  V30 18 1 14 19
M  V30 19 1 15 20
M  V30 20 1 17 21
M  V30 21 1 21 22
M  V30 22 1 21 23
M  V30 23 2 22 24
M  V30 24 1 24 25
M  V30 25 1 25 26
M  V30 26 1 25 27
M  V30 27 1 26 28
M  V30 28 1 26 29
M  V30 29 1 6 8
M  V30 30 1 16 18
M  V30 31 1 17 20
M  V30 32 1 1 30
M  V30 33 1 2 31
M  V30 34 1 3 32
M  V30 35 1 3 33
M  V30 36 1 4 34
M  V30 37 1 4 35
M  V30 38 1 6 36
M  V30 39 1 6 37
M  V30 40 1 7 38
M  V30 41 1 8 39
M  V30 42 1 9 40
M  V30 43 1 10 41
M  V30 44 1 10 42
M  V30 45 1 10 43
M  V30 46 1 12 44
M  V30 47 1 13 45
M  V30 48 1 13 46
M  V30 49 1 15 47
M  V30 50 1 15 48
M  V30 51 1 16 49
M  V30 52 1 16 50
M  V30 53 1 17 51
M  V30 54 1 18 52
M  V30 55 1 18 53
M  V30 56 1 19 54
M  V30 57 1 19 55
M  V30 58 1 19 56
M  V30 59 1 20 57
M  V30 60 1 20 58
M  V30 61 1 21 59
M  V30 62 1 22 60
M  V30 63 1 23 61
M  V30 64 1 23 62
M  V30 65 1 23 63
M  V30 66 1 24 64
M  V30 67 1 25 65
M  V30 68 1 26 66
M  V30 69 1 27 67
M  V30 70 1 27 68
M  V30 71 1 27 69
M  V30 72 1 28 70
M  V30 73 1 28 71
M  V30 74 1 28 72
M  V30 75 1 29 73
M  V30 76 1 29 74
M  V30 77 1 29 75
M  V30 END BOND
M  V30 END CTAB
M  END
>  <level_0>
5165

>  <index>
5165

>  <NO.>
5166

>  <Name>
dihydrotachysterol

>  <SMILES>
CC1CCC(O)CC1=CC=C1CCCC2(C)C1CCC2C(C)C=CC(C)C(C)C

>  <logBB>


>  <Class>
-1

>  <MW>
398.35

>  <nHBAcc>
1

>  <nHBDon>
1

>  <SLogP>
7.72

>  <TopoPSA>
20.23

>  <MMFF94 Energy>
88.04

$$$$
CCC(=O)C(CC(C)N1CCCCC1)(c1ccccc1)c1ccccc1
Actelion Java MolfileCreator 2.0

  0  0  0  0  0  0              0 V3000
M  V30 BEGIN CTAB
M  V30 COUNTS 57 59 0 0 0
M  V30 BEGIN ATOM
M  V30 1 O 0.9522 -0.3966 -2.1434 0
M  V30 2 C -0.2783 -0.3322 -2.0642 0
M  V30 3 C -1.0206 -0.0506 -0.705 0
M  V30 4 C -1.1284 -0.5653 -3.3149 0
M  V30 5 C -2.1378 1.0145 -1.0184 0
M  V30 6 C -1.6138 -1.3434 -0.0862 0
M  V30 7 C 0.0168 0.5626 0.3198 0
M  V30 8 C -0.3358 -1.2072 -4.4423 0
M  V30 9 C -3.4538 0.6227 -1.3504 0
M  V30 10 C -1.8535 2.3935 -1.0658 0
M  V30 11 C -2.4872 -1.2594 1.0207 0
M  V30 12 C -1.2893 -2.6269 -0.5628 0
M  V30 13 C 1.1554 -0.3375 0.8961 0 CFG=1
M  V30 14 C -4.4403 1.5611 -1.6669 0
M  V30 15 C -2.8416 3.3317 -1.3834 0
M  V30 16 C -3.0415 -2.4046 1.5963 0
M  V30 17 C -1.8446 -3.7717 0.0169 0
M  V30 18 N 2.3379 0.5318 1.1462 0
M  V30 19 C 0.7396 -1.1207 2.1519 0
M  V30 20 C -4.1351 2.9165 -1.6784 0
M  V30 21 C -2.7233 -3.6604 1.0906 0
M  V30 22 C 2.2395 1.3929 2.3304 0
M  V30 23 C 3.5998 -0.2194 1.1221 0
M  V30 24 C 3.3989 2.3905 2.377 0
M  V30 25 C 4.8026 0.7261 1.143 0
M  V30 26 C 4.7448 1.677 2.3325 0
M  V30 27 H -1.5188 0.3975 -3.6579 0
M  V30 28 H -1.9658 -1.2231 -3.0662 0
M  V30 29 H -0.527 1.0194 1.1589 0
M  V30 30 H 0.519 1.3915 -0.1981 0
M  V30 31 H -0.9819 -1.3866 -5.3071 0
M  V30 32 H 0.0896 -2.1655 -4.1268 0
M  V30 33 H 0.4887 -0.5618 -4.7622 0
M  V30 34 H -3.7366 -0.4284 -1.3755 0
M  V30 35 H -0.8559 2.7779 -0.8693 0
M  V30 36 H -2.7473 -0.2899 1.4441 0
M  V30 37 H -0.5856 -2.7708 -1.3798 0
M  V30 38 H 1.4331 -1.0691 0.1306 0
M  V30 39 H -5.4464 1.2283 -1.9095 0
M  V30 40 H -2.5937 4.3903 -1.406 0
M  V30 41 H -3.7175 -2.3135 2.4426 0
M  V30 42 H -1.581 -4.7542 -0.367 0
M  V30 43 H 0.2068 -0.4896 2.8709 0
M  V30 44 H 0.0975 -1.966 1.9029 0
M  V30 45 H 1.6049 -1.556 2.6626 0
M  V30 46 H -4.9001 3.6472 -1.9262 0
M  V30 47 H -3.1504 -4.553 1.5399 0
M  V30 48 H 1.3065 1.9671 2.3135 0
M  V30 49 H 2.2427 0.8012 3.2541 0
M  V30 50 H 3.6649 -0.8193 0.2064 0
M  V30 51 H 3.6657 -0.9111 1.9704 0
M  V30 52 H 3.3226 3.0831 1.5291 0
M  V30 53 H 3.3311 2.9939 3.2894 0
M  V30 54 H 5.7302 0.1438 1.1801 0
M  V30 55 H 4.8275 1.3075 0.2125 0
M  V30 56 H 5.557 2.4092 2.2688 0
M  V30 57 H 4.8912 1.1119 3.2611 0
M  V30 END ATOM
M  V30 BEGIN BOND
M  V30 1 2 1 2
M  V30 2 1 2 3
M  V30 3 1 2 4
M  V30 4 1 3 5
M  V30 5 1 3 6
M  V30 6 1 3 7
M  V30 7 1 4 8
M  V30 8 2 5 9
M  V30 9 1 5 10
M  V30 10 2 6 11
M  V30 11 1 6 12
M  V30 12 1 7 13
M  V30 13 1 9 14
M  V30 14 2 10 15
M  V30 15 1 11 16
M  V30 16 2 12 17
M  V30 17 1 13 18
M  V30 18 1 13 19
M  V30 19 2 14 20
M  V30 20 2 16 21
M  V30 21 1 18 22
M  V30 22 1 18 23
M  V30 23 1 22 24
M  V30 24 1 23 25
M  V30 25 1 24 26
M  V30 26 1 15 20
M  V30 27 1 17 21
M  V30 28 1 25 26
M  V30 29 1 4 27
M  V30 30 1 4 28
M  V30 31 1 7 29
M  V30 32 1 7 30
M  V30 33 1 8 31
M  V30 34 1 8 32
M  V30 35 1 8 33
M  V30 36 1 9 34
M  V30 37 1 10 35
M  V30 38 1 11 36
M  V30 39 1 12 37
M  V30 40 1 13 38
M  V30 41 1 14 39
M  V30 42 1 15 40
M  V30 43 1 16 41
M  V30 44 1 17 42
M  V30 45 1 19 43
M  V30 46 1 19 44
M  V30 47 1 19 45
M  V30 48 1 20 46
M  V30 49 1 21 47
M  V30 50 1 22 48
M  V30 51 1 22 49
M  V30 52 1 23 50
M  V30 53 1 23 51
M  V30 54 1 24 52
M  V30 55 1 24 53
M  V30 56 1 25 54
M  V30 57 1 25 55
M  V30 58 1 26 56
M  V30 59 1 26 57
M  V30 END BOND
M  V30 BEGIN COLLECTION
M  V30 MDLV30/STERAC1 ATOMS=(1 13)
M  V30 END COLLECTION
M  V30 END CTAB
M  END
>  <level_0>
5170

>  <index>
5170

>  <NO.>
5171

>  <Name>
dipipanone

>  <SMILES>
CCC(=O)C(CC(C)N1CCCCC1)(c1ccccc1)c1ccccc1

>  <logBB>


>  <Class>
1

>  <MW>
349.24

>  <nHBAcc>
2

>  <nHBDon>
0

>  <SLogP>
5.22

>  <TopoPSA>
20.31

>  <MMFF94 Energy>
94.344

$$$$
CCC(=O)OC(OP(=O)(CCCCc1ccccc1)CC(=O)N1CC(C2CCCCC2)CC1C(=O)O)C(C)C
Actelion Java MolfileCreator 2.0

  0  0  0  0  0  0              0 V3000
M  V30 BEGIN CTAB
M  V30 COUNTS 85 87 0 0 0
M  V30 BEGIN ATOM
M  V30 1 P -0.6376 0.7173 -1.2755 0
M  V30 2 O -0.6016 0.3429 -2.7298 0
M  V30 3 O -0.4249 -0.573 -0.3343 0
M  V30 4 C 0.7011 1.7801 -0.79 0
M  V30 5 C -2.1978 1.402 -0.729 0
M  V30 6 C -1.2545 -1.7041 -0.5135 0
M  V30 7 C 0.6497 2.1392 0.6663 0
M  V30 8 C -2.5712 2.764 -1.306 0
M  V30 9 O -2.2456 -1.7922 0.5264 0
M  V30 10 C -0.4011 -2.9865 -0.6255 0
M  V30 11 O -0.1313 3.0107 1.0539 0
M  V30 12 N 1.4614 1.4596 1.5386 0
M  V30 13 C -2.9542 2.6989 -2.7849 0
M  V30 14 C -1.8197 -1.7862 1.8171 0
M  V30 15 C -1.2786 -4.2277 -0.7984 0
M  V30 16 C 0.6013 -2.8829 -1.7785 0
M  V30 17 C 1.4048 1.7307 2.9748 0
M  V30 18 C 2.3655 0.3592 1.2413 0
M  V30 19 C -3.388 4.0733 -3.3034 0
M  V30 20 O -0.6599 -1.7378 2.2018 0
M  V30 21 C -3.0018 -1.8648 2.7477 0
M  V30 22 C 2.1986 2.9695 3.4057 0
M  V30 23 C 1.997 0.4719 3.6051 0
M  V30 24 C 3.0379 0.0085 2.5736 0
M  V30 25 C -3.8181 4.0179 -4.7478 0
M  V30 26 C -3.5361 -3.2805 2.8276 0
M  V30 27 O 2.2598 3.411 4.5448 0
M  V30 28 O 2.9136 3.559 2.4241 0
M  V30 29 C 3.4276 -1.4794 2.697 0
M  V30 30 C -2.8633 4.0195 -5.7735 0
M  V30 31 C -5.1761 3.9406 -5.0838 0
M  V30 32 C 4.4089 -1.8905 1.5833 0
M  V30 33 C 4.0308 -1.7888 4.0794 0
M  V30 34 C -3.2602 3.9543 -7.1099 0
M  V30 35 C -5.5714 3.8763 -6.4211 0
M  V30 36 C 4.8482 -3.3468 1.7139 0
M  V30 37 C 4.4741 -3.2451 4.2 0
M  V30 38 C -4.6138 3.8841 -7.4335 0
M  V30 39 C 5.44 -3.6349 3.088 0
M  V30 40 H 1.654 1.3174 -1.0554 0
M  V30 41 H 0.6529 2.714 -1.3613 0
M  V30 42 H -2.1684 1.4853 0.363 0
M  V30 43 H -2.9945 0.6837 -0.9538 0
M  V30 44 H -1.8232 -1.5914 -1.4439 0
M  V30 45 H -3.4207 3.1598 -0.736 0
M  V30 46 H -1.7404 3.465 -1.1738 0
M  V30 47 H 0.1835 -3.1178 0.2925 0
M  V30 48 H -3.7677 1.9757 -2.9231 0
M  V30 49 H -2.1051 2.3394 -3.3756 0
M  V30 50 H -1.8989 -4.1514 -1.6978 0
M  V30 51 H -0.6627 -5.1288 -0.8884 0
M  V30 52 H -1.9415 -4.3683 0.061 0
M  V30 53 H 1.2937 -2.0483 -1.6272 0
M  V30 54 H 0.09 -2.7329 -2.7353 0
M  V30 55 H 1.2003 -3.7966 -1.8549 0
M  V30 56 H 0.3644 1.8925 3.2783 0
M  V30 57 H 1.7787 -0.4729 0.8444 0
M  V30 58 H 3.096 0.6692 0.488 0
M  V30 59 H -4.2103 4.464 -2.6905 0
M  V30 60 H -2.5664 4.7936 -3.2004 0
M  V30 61 H -3.7748 -1.1666 2.4084 0
M  V30 62 H -2.6812 -1.523 3.7382 0
M  V30 63 H 2.4408 0.6512 4.5894 0
M  V30 64 H 1.2135 -0.2872 3.7178 0
M  V30 65 H 3.9364 0.6313 2.6864 0
M  V30 66 H -4.3665 -3.3361 3.538 0
M  V30 67 H -2.7561 -3.9762 3.1542 0
M  V30 68 H -3.8976 -3.6217 1.8521 0
M  V30 69 H 3.3238 4.3313 2.8648 0
M  V30 70 H 2.5183 -2.0868 2.5842 0
M  V30 71 H -1.8031 4.0672 -5.5354 0
M  V30 72 H -5.9352 3.929 -4.3053 0
M  V30 73 H 5.2941 -1.2423 1.6123 0
M  V30 74 H 3.948 -1.7544 0.5984 0
M  V30 75 H 3.2994 -1.5837 4.8692 0
M  V30 76 H 4.8912 -1.1328 4.2633 0
M  V30 77 H -2.512 3.9551 -7.898 0
M  V30 78 H -6.627 3.8181 -6.6725 0
M  V30 79 H 5.5872 -3.5787 0.9388 0
M  V30 80 H 3.9869 -4.0039 1.5407 0
M  V30 81 H 3.5931 -3.8978 4.1648 0
M  V30 82 H 4.9503 -3.4048 5.174 0
M  V30 83 H -4.9219 3.8322 -8.4742 0
M  V30 84 H 6.3785 -3.0794 3.2066 0
M  V30 85 H 5.686 -4.6996 3.1687 0
M  V30 END ATOM
M  V30 BEGIN BOND
M  V30 1 2 1 2
M  V30 2 1 1 3
M  V30 3 1 1 4
M  V30 4 1 1 5
M  V30 5 1 3 6
M  V30 6 1 4 7
M  V30 7 1 5 8
M  V30 8 1 6 9
M  V30 9 1 6 10
M  V30 10 2 7 11
M  V30 11 1 7 12
M  V30 12 1 8 13
M  V30 13 1 9 14
M  V30 14 1 10 15
M  V30 15 1 10 16
M  V30 16 1 12 17
M  V30 17 1 12 18
M  V30 18 1 13 19
M  V30 19 2 14 20
M  V30 20 1 14 21
M  V30 21 1 17 22
M  V30 22 1 17 23
M  V30 23 1 18 24
M  V30 24 1 19 25
M  V30 25 1 21 26
M  V30 26 2 22 27
M  V30 27 1 22 28
M  V30 28 1 24 29
M  V30 29 2 25 30
M  V30 30 1 25 31
M  V30 31 1 29 32
M  V30 32 1 29 33
M  V30 33 1 30 34
M  V30 34 2 31 35
M  V30 35 1 32 36
M  V30 36 1 33 37
M  V30 37 2 34 38
M  V30 38 1 36 39
M  V30 39 1 23 24
M  V30 40 1 35 38
M  V30 41 1 37 39
M  V30 42 1 4 40
M  V30 43 1 4 41
M  V30 44 1 5 42
M  V30 45 1 5 43
M  V30 46 1 6 44
M  V30 47 1 8 45
M  V30 48 1 8 46
M  V30 49 1 10 47
M  V30 50 1 13 48
M  V30 51 1 13 49
M  V30 52 1 15 50
M  V30 53 1 15 51
M  V30 54 1 15 52
M  V30 55 1 16 53
M  V30 56 1 16 54
M  V30 57 1 16 55
M  V30 58 1 17 56
M  V30 59 1 18 57
M  V30 60 1 18 58
M  V30 61 1 19 59
M  V30 62 1 19 60
M  V30 63 1 21 61
M  V30 64 1 21 62
M  V30 65 1 23 63
M  V30 66 1 23 64
M  V30 67 1 24 65
M  V30 68 1 26 66
M  V30 69 1 26 67
M  V30 70 1 26 68
M  V30 71 1 28 69
M  V30 72 1 29 70
M  V30 73 1 30 71
M  V30 74 1 31 72
M  V30 75 1 32 73
M  V30 76 1 32 74
M  V30 77 1 33 75
M  V30 78 1 33 76
M  V30 79 1 34 77
M  V30 80 1 35 78
M  V30 81 1 36 79
M  V30 82 1 36 80
M  V30 83 1 37 81
M  V30 84 1 37 82
M  V30 85 1 38 83
M  V30 86 1 39 84
M  V30 87 1 39 85
M  V30 END BOND
M  V30 END CTAB
M  END
>  <level_0>
5171

>  <index>
5171

>  <NO.>
5172

>  <Name>
fosinopril

>  <SMILES>
CCC(=O)OC(OP(=O)(CCCCc1ccccc1)CC(=O)N1CC(C2CCCCC2)CC1C(=O)O)C(C)C

>  <logBB>


>  <Class>
-1

>  <MW>
563.3

>  <nHBAcc>
6

>  <nHBDon>
1

>  <SLogP>
6.12

>  <TopoPSA>
110.21

>  <MMFF94 Energy>
-38.593

$$$$
CCC(C)CCCC(=O)NC(CCN)C(=O)NC(C(=O)NC(CCN)C(=O)NC1CCNC(=O)C(C(C)O)NC(=O)C(CCN)NC(=O)C(CCN)NC(=O)C(CC(C)C)NC(=O)C(CC(C)C)NC(=O)C(CCN)NC1=O)C(C)O
Actelion Java MolfileCreator 2.0

  0  0  0  0  0  0              0 V3000
M  V30 BEGIN CTAB
M  V30 COUNTS 179 179 0 0 0
M  V30 BEGIN ATOM
M  V30 1 O -6.1006 -2.7338 -4.8468 0
M  V30 2 C -5.4251 -2.8024 -3.8159 0
M  V30 3 N -5.9227 -2.2261 -2.6819 0
M  V30 4 C -4.0764 -3.5521 -3.7882 0
M  V30 5 C -5.4305 -2.3387 -1.323 0
M  V30 6 N -4.3871 -4.8841 -4.3269 0
M  V30 7 C -2.9764 -2.8215 -4.6077 0
M  V30 8 C -4.2135 -1.458 -1.065 0
M  V30 9 C -3.6659 -6.0392 -4.3527 0
M  V30 10 O -1.7611 -2.7909 -3.8305 0
M  V30 11 C -3.2657 -1.3771 -5.0054 0
M  V30 12 C -4.559 0.0294 -0.8916 0
M  V30 13 O -4.1878 -6.9928 -4.9401 0
M  V30 14 C -2.1926 -6.0771 -3.8762 0
M  V30 15 N -3.3748 0.8154 -1.2579 0
M  V30 16 C -4.9347 0.2907 0.5926 0
M  V30 17 N -1.9096 -5.4657 -2.5792 0
M  V30 18 C -1.6087 -7.5001 -3.9823 0
M  V30 19 C -3.4071 1.9705 -2.0009 0
M  V30 20 O -5.5674 -0.525 1.257 0
M  V30 21 N -4.5035 1.5 1.0951 0
M  V30 22 C -2.4144 -5.9272 -1.3895 0
M  V30 23 C -0.0845 -7.5451 -3.8741 0
M  V30 24 O -4.4403 2.3824 -2.5206 0
M  V30 25 C -2.0332 2.6305 -2.2498 0
M  V30 26 C -4.3873 1.8287 2.5296 0
M  V30 27 O -3.3135 -6.763 -1.3405 0
M  V30 28 C -1.6375 -5.4712 -0.1249 0
M  V30 29 N 0.5564 -6.8736 -5.0032 0
M  V30 30 N -1.1933 2.5112 -1.0536 0
M  V30 31 C -1.3546 2.0027 -3.4731 0
M  V30 32 C -3.1801 1.0684 3.1597 0
M  V30 33 C -5.6572 1.6282 3.3636 0
M  V30 34 N -1.1096 -4.1022 -0.1416 0
M  V30 35 C -2.4237 -5.7368 1.169 0
M  V30 36 C -0.6632 3.6036 -0.4073 0
M  V30 37 C -0.5707 3.0143 -4.3147 0
M  V30 38 O -2.9344 1.0469 4.3612 0
M  V30 39 N -2.3756 0.4677 2.2209 0
M  V30 40 C -6.8551 2.4304 2.8621 0
M  V30 41 C 0.0871 -3.7601 -0.7324 0
M  V30 42 C -3.7425 -4.9676 1.2613 0
M  V30 43 O -0.6589 4.7297 -0.9052 0
M  V30 44 C 0.0656 3.2803 0.9061 0
M  V30 45 N 0.5521 3.6113 -3.5994 0
M  V30 46 C -1.2167 -0.391 2.4491 0
M  V30 47 N -6.6302 3.8691 2.9877 0
M  V30 48 O 0.6456 -4.5096 -1.5284 0
M  V30 49 C 0.5599 -2.3172 -0.4375 0
M  V30 50 N -4.3122 -5.1211 2.5951 0
M  V30 51 N 1.4882 3.3477 0.5833 0
M  V30 52 C -0.3652 4.2791 1.9937 0
M  V30 53 C -0.7757 -0.7679 0.9998 0
M  V30 54 C -1.5821 -1.6276 3.2934 0
M  V30 55 N 0.0642 -1.8406 0.8595 0
M  V30 56 C 2.0805 -2.1399 -0.5727 0
M  V30 57 C 2.261 2.2051 0.4884 0
M  V30 58 O -1.7428 4.0449 2.3111 0
M  V30 59 C 0.4413 4.1072 3.2777 0
M  V30 60 O -1.1773 -0.1228 0.0219 0
M  V30 61 C -0.4737 -2.0358 4.2868 0
M  V30 62 C 2.9494 -2.5972 0.6202 0
M  V30 63 O 1.8158 1.0925 0.7566 0
M  V30 64 C 3.6835 2.4425 -0.0576 0
M  V30 65 C -0.3753 -1.0554 5.4584 0
M  V30 66 C -0.7431 -3.4453 4.8183 0
M  V30 67 C 2.8154 -4.0862 0.9343 0
M  V30 68 C 4.4186 -2.263 0.3415 0
M  V30 69 N 4.2652 3.5534 0.7127 0
M  V30 70 C 3.6401 2.7725 -1.559 0
M  V30 71 C 5.6121 3.8423 0.6702 0
M  V30 72 C 3.1607 1.6157 -2.4369 0
M  V30 73 O 6.4081 3.2468 -0.0446 0
M  V30 74 C 5.9968 4.9777 1.6002 0
M  V30 75 N 4.0649 0.4752 -2.3613 0
M  V30 76 C 7.4887 5.3006 1.5385 0
M  V30 77 C 7.8473 6.4462 2.4896 0
M  V30 78 C 9.3126 6.9198 2.3696 0
M  V30 79 C 9.5027 8.1876 3.229 0
M  V30 80 C 10.2976 5.8172 2.7693 0
M  V30 81 C 10.8613 8.8521 3.055 0
M  V30 82 H -6.8198 -1.7745 -2.8294 0
M  V30 83 H -3.7447 -3.7058 -2.7623 0
M  V30 84 H -6.2609 -2.0899 -0.6559 0
M  V30 85 H -5.1755 -3.3884 -1.1457 0
M  V30 86 H -5.302 -4.9943 -4.7566 0
M  V30 87 H -2.7524 -3.3922 -5.5169 0
M  V30 88 H -3.7046 -1.8207 -0.1628 0
M  V30 89 H -3.4914 -1.5773 -1.8787 0
M  V30 90 H -1.0313 -2.6346 -4.4584 0
M  V30 91 H -2.3872 -0.9338 -5.4882 0
M  V30 92 H -3.4785 -0.756 -4.1297 0
M  V30 93 H -4.1011 -1.3061 -5.7069 0
M  V30 94 H -5.4042 0.3325 -1.5177 0
M  V30 95 H -1.6662 -5.445 -4.6022 0
M  V30 96 H -2.4735 0.4675 -0.9354 0
M  V30 97 H -1.1007 -4.8498 -2.5447 0
M  V30 98 H -2.0353 -8.1394 -3.1999 0
M  V30 99 H -1.9013 -7.9583 -4.9361 0
M  V30 100 H -4.1913 2.2044 0.4365 0
M  V30 101 H 0.2447 -8.5899 -3.8536 0
M  V30 102 H 0.251 -7.085 -2.9393 0
M  V30 103 H -2.2482 3.6909 -2.4294 0
M  V30 104 H -4.1055 2.8875 2.5558 0
M  V30 105 H -0.7568 -6.1288 -0.0987 0
M  V30 106 H 1.5682 -6.9219 -4.8808 0
M  V30 107 H 0.3546 -7.392 -5.8588 0
M  V30 108 H -0.9413 1.585 -0.7092 0
M  V30 109 H -2.1137 1.5606 -4.131 0
M  V30 110 H -0.6949 1.1788 -3.1709 0
M  V30 111 H -5.4537 1.9053 4.4069 0
M  V30 112 H -5.9289 0.5674 3.3992 0
M  V30 113 H -1.5859 -3.3809 0.3838 0
M  V30 114 H -1.7858 -5.4725 2.0232 0
M  V30 115 H -2.6311 -6.8115 1.2553 0
M  V30 116 H -1.2406 3.8074 -4.6657 0
M  V30 117 H -0.1819 2.5054 -5.2034 0
M  V30 118 H -2.5747 0.7206 1.2606 0
M  V30 119 H -7.7412 2.1608 3.4475 0
M  V30 120 H -7.074 2.1875 1.8174 0
M  V30 121 H -4.4616 -5.3251 0.5184 0
M  V30 122 H -3.5832 -3.901 1.0826 0
M  V30 123 H -0.2058 2.2685 1.2214 0
M  V30 124 H 1.0072 4.2892 -4.212 0
M  V30 125 H 0.1889 4.1708 -2.8182 0
M  V30 126 H -0.4345 0.224 2.9023 0
M  V30 127 H -7.4524 4.3625 2.6383 0
M  V30 128 H -6.5628 4.1129 3.9763 0
M  V30 129 H 0.0909 -1.7155 -1.2272 0
M  V30 130 H -5.1996 -4.6183 2.6457 0
M  V30 131 H -4.5458 -6.1025 2.7536 0
M  V30 132 H 1.8342 4.2064 0.1675 0
M  V30 133 H -0.2726 5.3123 1.6396 0
M  V30 134 H -1.8099 -2.4727 2.6317 0
M  V30 135 H -2.5043 -1.4603 3.8636 0
M  V30 136 H 0.4076 -2.3197 1.6812 0
M  V30 137 H 2.2669 -1.0695 -0.7202 0
M  V30 138 H 2.4295 -2.6342 -1.4883 0
M  V30 139 H -2.0063 4.7023 2.9814 0
M  V30 140 H 0.3409 3.0879 3.6674 0
M  V30 141 H 0.0669 4.7791 4.0579 0
M  V30 142 H 1.5024 4.3221 3.1223 0
M  V30 143 H 0.495 -2.0509 3.7752 0
M  V30 144 H 2.657 -2.0321 1.5138 0
M  V30 145 H 4.291 1.5537 0.1439 0
M  V30 146 H -0.1242 -0.0463 5.1191 0
M  V30 147 H -1.3194 -1.0012 6.0112 0
M  V30 148 H 0.406 -1.3687 6.1592 0
M  V30 149 H -0.7583 -4.172 3.9995 0
M  V30 150 H -1.7062 -3.498 5.3375 0
M  V30 151 H 0.0387 -3.7532 5.5205 0
M  V30 152 H 1.8099 -4.3316 1.2875 0
M  V30 153 H 3.0349 -4.6998 0.0546 0
M  V30 154 H 3.5111 -4.3788 1.7284 0
M  V30 155 H 4.5489 -1.1877 0.1823 0
M  V30 156 H 4.7841 -2.7866 -0.5481 0
M  V30 157 H 5.0513 -2.5498 1.1882 0
M  V30 158 H 3.6933 4.0066 1.4142 0
M  V30 159 H 2.9851 3.635 -1.735 0
M  V30 160 H 4.6328 3.0859 -1.9049 0
M  V30 161 H 3.1125 1.9558 -3.4771 0
M  V30 162 H 2.1522 1.3005 -2.1509 0
M  V30 163 H 5.7166 4.6933 2.6215 0
M  V30 164 H 5.4085 5.8603 1.3222 0
M  V30 165 H 3.8014 -0.2134 -3.0652 0
M  V30 166 H 5.0137 0.7705 -2.5978 0
M  V30 167 H 7.7643 5.5716 0.512 0
M  V30 168 H 8.0582 4.4008 1.7957 0
M  V30 169 H 7.6407 6.1399 3.5231 0
M  V30 170 H 7.1841 7.2943 2.2755 0
M  V30 171 H 9.5026 7.1848 1.3214 0
M  V30 172 H 8.7336 8.9222 2.9592 0
M  V30 173 H 9.3522 7.9496 4.2891 0
M  V30 174 H 10.1449 5.5089 3.809 0
M  V30 175 H 11.3344 6.1493 2.6623 0
M  V30 176 H 10.1893 4.9339 2.1333 0
M  V30 177 H 10.8828 9.8054 3.5932 0
M  V30 178 H 11.0679 9.0552 1.9996 0
M  V30 179 H 11.6683 8.2323 3.4555 0
M  V30 END ATOM
M  V30 BEGIN BOND
M  V30 1 2 1 2
M  V30 2 1 2 3
M  V30 3 1 2 4
M  V30 4 1 3 5
M  V30 5 1 4 6
M  V30 6 1 4 7
M  V30 7 1 5 8
M  V30 8 1 6 9
M  V30 9 1 7 10
M  V30 10 1 7 11
M  V30 11 1 8 12
M  V30 12 2 9 13
M  V30 13 1 9 14
M  V30 14 1 12 15
M  V30 15 1 12 16
M  V30 16 1 14 17
M  V30 17 1 14 18
M  V30 18 1 15 19
M  V30 19 2 16 20
M  V30 20 1 16 21
M  V30 21 1 17 22
M  V30 22 1 18 23
M  V30 23 2 19 24
M  V30 24 1 19 25
M  V30 25 1 21 26
M  V30 26 2 22 27
M  V30 27 1 22 28
M  V30 28 1 23 29
M  V30 29 1 25 30
M  V30 30 1 25 31
M  V30 31 1 26 32
M  V30 32 1 26 33
M  V30 33 1 28 34
M  V30 34 1 28 35
M  V30 35 1 30 36
M  V30 36 1 31 37
M  V30 37 2 32 38
M  V30 38 1 32 39
M  V30 39 1 33 40
M  V30 40 1 34 41
M  V30 41 1 35 42
M  V30 42 2 36 43
M  V30 43 1 36 44
M  V30 44 1 37 45
M  V30 45 1 39 46
M  V30 46 1 40 47
M  V30 47 2 41 48
M  V30 48 1 41 49
M  V30 49 1 42 50
M  V30 50 1 44 51
M  V30 51 1 44 52
M  V30 52 1 46 53
M  V30 53 1 46 54
M  V30 54 1 49 55
M  V30 55 1 49 56
M  V30 56 1 51 57
M  V30 57 1 52 58
M  V30 58 1 52 59
M  V30 59 2 53 60
M  V30 60 1 54 61
M  V30 61 1 56 62
M  V30 62 2 57 63
M  V30 63 1 57 64
M  V30 64 1 61 65
M  V30 65 1 61 66
M  V30 66 1 62 67
M  V30 67 1 62 68
M  V30 68 1 64 69
M  V30 69 1 64 70
M  V30 70 1 69 71
M  V30 71 1 70 72
M  V30 72 2 71 73
M  V30 73 1 71 74
M  V30 74 1 72 75
M  V30 75 1 74 76
M  V30 76 1 76 77
M  V30 77 1 77 78
M  V30 78 1 78 79
M  V30 79 1 78 80
M  V30 80 1 79 81
M  V30 81 1 53 55
M  V30 82 1 3 82
M  V30 83 1 4 83
M  V30 84 1 5 84
M  V30 85 1 5 85
M  V30 86 1 6 86
M  V30 87 1 7 87
M  V30 88 1 8 88
M  V30 89 1 8 89
M  V30 90 1 10 90
M  V30 91 1 11 91
M  V30 92 1 11 92
M  V30 93 1 11 93
M  V30 94 1 12 94
M  V30 95 1 14 95
M  V30 96 1 15 96
M  V30 97 1 17 97
M  V30 98 1 18 98
M  V30 99 1 18 99
M  V30 100 1 21 100
M  V30 101 1 23 101
M  V30 102 1 23 102
M  V30 103 1 25 103
M  V30 104 1 26 104
M  V30 105 1 28 105
M  V30 106 1 29 106
M  V30 107 1 29 107
M  V30 108 1 30 108
M  V30 109 1 31 109
M  V30 110 1 31 110
M  V30 111 1 33 111
M  V30 112 1 33 112
M  V30 113 1 34 113
M  V30 114 1 35 114
M  V30 115 1 35 115
M  V30 116 1 37 116
M  V30 117 1 37 117
M  V30 118 1 39 118
M  V30 119 1 40 119
M  V30 120 1 40 120
M  V30 121 1 42 121
M  V30 122 1 42 122
M  V30 123 1 44 123
M  V30 124 1 45 124
M  V30 125 1 45 125
M  V30 126 1 46 126
M  V30 127 1 47 127
M  V30 128 1 47 128
M  V30 129 1 49 129
M  V30 130 1 50 130
M  V30 131 1 50 131
M  V30 132 1 51 132
M  V30 133 1 52 133
M  V30 134 1 54 134
M  V30 135 1 54 135
M  V30 136 1 55 136
M  V30 137 1 56 137
M  V30 138 1 56 138
M  V30 139 1 58 139
M  V30 140 1 59 140
M  V30 141 1 59 141
M  V30 142 1 59 142
M  V30 143 1 61 143
M  V30 144 1 62 144
M  V30 145 1 64 145
M  V30 146 1 65 146
M  V30 147 1 65 147
M  V30 148 1 65 148
M  V30 149 1 66 149
M  V30 150 1 66 150
M  V30 151 1 66 151
M  V30 152 1 67 152
M  V30 153 1 67 153
M  V30 154 1 67 154
M  V30 155 1 68 155
M  V30 156 1 68 156
M  V30 157 1 68 157
M  V30 158 1 69 158
M  V30 159 1 70 159
M  V30 160 1 70 160
M  V30 161 1 72 161
M  V30 162 1 72 162
M  V30 163 1 74 163
M  V30 164 1 74 164
M  V30 165 1 75 165
M  V30 166 1 75 166
M  V30 167 1 76 167
M  V30 168 1 76 168
M  V30 169 1 77 169
M  V30 170 1 77 170
M  V30 171 1 78 171
M  V30 172 1 79 172
M  V30 173 1 79 173
M  V30 174 1 80 174
M  V30 175 1 80 175
M  V30 176 1 80 176
M  V30 177 1 81 177
M  V30 178 1 81 178
M  V30 179 1 81 179
M  V30 END BOND
M  V30 END CTAB
M  END
>  <level_0>
5173

>  <index>
5173

>  <NO.>
5174

>  <Name>
colistin sulfate

>  <SMILES>
CCC(C)CCCC(=O)NC(CCN)C(=O)NC(C(=O)NC(CCN)C(=O)NC1CCNC(=O)C(C(C)O)NC(=O)C(CCN)NC(=O)C(CCN)NC(=O)C(CC(C)C)NC(=O)C(CC(C)C)NC(=O)C(CCN)NC1=O)C(C)O

>  <logBB>


>  <Class>
-1

>  <MW>
1154.75

>  <nHBAcc>
18

>  <nHBDon>
18

>  <SLogP>
-5.83

>  <TopoPSA>
490.66

>  <MMFF94 Energy>
117.19

$$$$
CCC1(O)CCC2C3CCC4=CCCCC4C3CCC21C
Actelion Java MolfileCreator 2.0

  0  0  0  0  0  0              0 V3000
M  V30 BEGIN CTAB
M  V30 COUNTS 53 56 0 0 0
M  V30 BEGIN ATOM
M  V30 1 O -3.2775 0.0 2.3973 0
M  V30 2 C -2.7454 -0.8709 1.4017 0
M  V30 3 C -1.2103 -0.5769 1.2008 0
M  V30 4 C -3.3295 -0.5221 0.0239 0
M  V30 5 C -3.0646 -2.3325 1.8155 0
M  V30 6 C -0.9533 -1.1716 -0.2087 0
M  V30 7 C -0.9151 0.9475 1.2268 0
M  V30 8 C -0.3611 -1.2441 2.3 0
M  V30 9 C -2.2557 -0.8962 -0.9946 0
M  V30 10 C -4.5467 -2.6465 2.0111 0
M  V30 11 C 0.2927 -0.6667 -0.9711 0
M  V30 12 C 0.4069 1.3463 0.5652 0
M  V30 13 C 0.4688 0.8719 -0.8972 0
M  V30 14 C 1.569 -1.4016 -0.5139 0
M  V30 15 C 1.7362 1.3225 -1.689 0
M  V30 16 C 2.7865 -0.9856 -1.3302 0
M  V30 17 C 2.9716 0.5083 -1.3477 0
M  V30 18 C 1.9782 2.8468 -1.6107 0
M  V30 19 C 4.1788 1.0702 -1.155 0
M  V30 20 C 3.3533 3.2267 -2.1503 0
M  V30 21 C 4.449 2.534 -1.3404 0
M  V30 22 H -4.2426 0.0333 2.2867 0
M  V30 23 H -4.2737 -1.0265 -0.197 0
M  V30 24 H -3.554 0.5494 -0.045 0
M  V30 25 H -2.6552 -3.0412 1.0876 0
M  V30 26 H -2.5873 -2.5465 2.7791 0
M  V30 27 H -0.8702 -2.2642 -0.1247 0
M  V30 28 H -1.7112 1.5066 0.7215 0
M  V30 29 H -0.9153 1.3106 2.263 0
M  V30 30 H -0.7659 -1.0175 3.2933 0
M  V30 31 H -0.3309 -2.3329 2.1879 0
M  V30 32 H 0.6731 -0.8936 2.3043 0
M  V30 33 H -2.5487 -1.797 -1.5467 0
M  V30 34 H -2.1496 -0.0951 -1.7333 0
M  V30 35 H -4.6614 -3.6806 2.3534 0
M  V30 36 H -5.1137 -2.5478 1.0823 0
M  V30 37 H -4.9996 -1.999 2.7676 0
M  V30 38 H 0.152 -0.9305 -2.03 0
M  V30 39 H 1.2591 0.9699 1.1396 0
M  V30 40 H 0.4591 2.4381 0.617 0
M  V30 41 H -0.3862 1.3335 -1.4111 0
M  V30 42 H 1.7811 -1.2167 0.5412 0
M  V30 43 H 1.429 -2.4844 -0.619 0
M  V30 44 H 1.5315 1.1002 -2.7481 0
M  V30 45 H 3.6741 -1.4928 -0.9335 0
M  V30 46 H 2.6629 -1.3318 -2.3642 0
M  V30 47 H 1.1976 3.3716 -2.1739 0
M  V30 48 H 1.9261 3.2112 -0.5804 0
M  V30 49 H 5.0378 0.4502 -0.9092 0
M  V30 50 H 3.4901 4.3129 -2.1022 0
M  V30 51 H 3.428 2.9403 -3.2068 0
M  V30 52 H 5.4061 2.6629 -1.8583 0
M  V30 53 H 4.5485 3.0028 -0.3545 0
M  V30 END ATOM
M  V30 BEGIN BOND
M  V30 1 1 1 2
M  V30 2 1 2 3
M  V30 3 1 2 4
M  V30 4 1 2 5
M  V30 5 1 3 6
M  V30 6 1 3 7
M  V30 7 1 3 8
M  V30 8 1 4 9
M  V30 9 1 5 10
M  V30 10 1 6 11
M  V30 11 1 7 12
M  V30 12 1 11 13
M  V30 13 1 11 14
M  V30 14 1 13 15
M  V30 15 1 14 16
M  V30 16 1 15 17
M  V30 17 1 15 18
M  V30 18 2 17 19
M  V30 19 1 18 20
M  V30 20 1 19 21
M  V30 21 1 6 9
M  V30 22 1 12 13
M  V30 23 1 16 17
M  V30 24 1 20 21
M  V30 25 1 1 22
M  V30 26 1 4 23
M  V30 27 1 4 24
M  V30 28 1 5 25
M  V30 29 1 5 26
M  V30 30 1 6 27
M  V30 31 1 7 28
M  V30 32 1 7 29
M  V30 33 1 8 30
M  V30 34 1 8 31
M  V30 35 1 8 32
M  V30 36 1 9 33
M  V30 37 1 9 34
M  V30 38 1 10 35
M  V30 39 1 10 36
M  V30 40 1 10 37
M  V30 41 1 11 38
M  V30 42 1 12 39
M  V30 43 1 12 40
M  V30 44 1 13 41
M  V30 45 1 14 42
M  V30 46 1 14 43
M  V30 47 1 15 44
M  V30 48 1 16 45
M  V30 49 1 16 46
M  V30 50 1 18 47
M  V30 51 1 18 48
M  V30 52 1 19 49
M  V30 53 1 20 50
M  V30 54 1 20 51
M  V30 55 1 21 52
M  V30 56 1 21 53
M  V30 END BOND
M  V30 END CTAB
M  END
>  <level_0>
5179

>  <index>
5179

>  <NO.>
5180

>  <Name>
ethylnandrol

>  <SMILES>
CCC1(O)CCC2C3CCC4=CCCCC4C3CCC21C

>  <logBB>


>  <Class>
-1

>  <MW>
288.25

>  <nHBAcc>
1

>  <nHBDon>
1

>  <SLogP>
5.09

>  <TopoPSA>
20.23

>  <MMFF94 Energy>
69.248

$$$$
CCCC1(CCc2ccccc2)CC(O)=C(C(CC)c2cccc(NS(=O)(=O)c3ccc(C(F)(F)F)cn3)c2)C(=O)O1
Actelion Java MolfileCreator 2.0

  0  0  0  0  0  0              0 V3000
M  V30 BEGIN CTAB
M  V30 COUNTS 75 78 0 0 0
M  V30 BEGIN ATOM
M  V30 1 S 6.0794 0.1617 0.8089 0
M  V30 2 O 5.3631 0.5541 2.0049 0
M  V30 3 O 7.3164 -0.5923 0.9133 0
M  V30 4 N 5.0954 -0.7839 -0.1793 0
M  V30 5 C 6.4488 1.6384 -0.1447 0
M  V30 6 C 3.8492 -0.3412 -0.7065 0
M  V30 7 N 5.3666 2.359 -0.5413 0
M  V30 8 C 7.7623 1.9752 -0.434 0
M  V30 9 C 2.9355 0.4135 0.0355 0
M  V30 10 C 3.4958 -0.7816 -1.9832 0
M  V30 11 C 5.6164 3.4726 -1.2643 0
M  V30 12 C 7.9809 3.13 -1.182 0
M  V30 13 C 1.691 0.7849 -0.5023 0
M  V30 14 C 2.2682 -0.4229 -2.537 0
M  V30 15 C 6.8917 3.8977 -1.6168 0
M  V30 16 C 1.3772 0.3607 -1.8058 0
M  V30 17 C 0.6655 1.6311 0.2612 0
M  V30 18 C 7.0638 5.1609 -2.4055 0
M  V30 19 C -0.5882 0.8228 0.5906 0
M  V30 20 C 1.2208 2.396 1.4897 0
M  V30 21 F 6.1199 5.311 -3.3747 0
M  V30 22 F 6.9834 6.2728 -1.6265 0
M  V30 23 F 8.2652 5.2341 -3.0423 0
M  V30 24 C -1.8399 1.317 -0.0557 0
M  V30 25 C -0.6802 -0.2331 1.425 0
M  V30 26 C 0.2373 3.412 2.061 0
M  V30 27 O -1.8915 2.4133 -0.6008 0
M  V30 28 O -2.9316 0.5142 -0.0227 0
M  V30 29 O 0.3742 -0.7975 2.1067 0
M  V30 30 C -1.9797 -0.9428 1.659 0
M  V30 31 C -2.8648 -0.8714 0.4075 0
M  V30 32 C -4.3229 -1.2514 0.7682 0
M  V30 33 C -2.2921 -1.7304 -0.7548 0
M  V30 34 C -4.5315 -2.7056 1.2005 0
M  V30 35 C -3.1149 -1.677 -2.0481 0
M  V30 36 C -5.9742 -2.9725 1.5553 0
M  V30 37 C -2.4317 -2.4488 -3.1678 0
M  V30 38 C -6.4205 -2.8272 2.8756 0
M  V30 39 C -6.8924 -3.3413 0.563 0
M  V30 40 C -7.7587 -3.0579 3.1985 0
M  V30 41 C -8.2301 -3.5713 0.8881 0
M  V30 42 C -8.6627 -3.4306 2.2054 0
M  V30 43 H 5.6252 -1.476 -0.704 0
M  V30 44 H 8.594 1.3697 -0.0878 0
M  V30 45 H 3.1969 0.7223 1.0418 0
M  V30 46 H 4.1736 -1.3974 -2.5672 0
M  V30 47 H 4.7296 4.0302 -1.5623 0
M  V30 48 H 8.9995 3.4308 -1.4238 0
M  V30 49 H 2.0046 -0.7524 -3.5389 0
M  V30 50 H 0.4279 0.6408 -2.2616 0
M  V30 51 H 0.4146 2.4258 -0.4555 0
M  V30 52 H 1.5147 1.7087 2.2911 0
M  V30 53 H 2.1291 2.9387 1.1964 0
M  V30 54 H -0.6536 2.9253 2.469 0
M  V30 55 H -0.0776 4.1276 1.295 0
M  V30 56 H 0.7096 3.9739 2.8734 0
M  V30 57 H 1.2173 -0.4168 1.8103 0
M  V30 58 H -2.4699 -0.463 2.5158 0
M  V30 59 H -1.794 -1.9885 1.9308 0
M  V30 60 H -4.9828 -1.0139 -0.077 0
M  V30 61 H -4.6719 -0.5801 1.5668 0
M  V30 62 H -1.2808 -1.3885 -1.0046 0
M  V30 63 H -2.1871 -2.7734 -0.4324 0
M  V30 64 H -4.2341 -3.3968 0.4038 0
M  V30 65 H -3.9025 -2.9484 2.0646 0
M  V30 66 H -4.1087 -2.1074 -1.8871 0
M  V30 67 H -3.2539 -0.6383 -2.3676 0
M  V30 68 H -3.0354 -2.4066 -4.0798 0
M  V30 69 H -1.4474 -2.0256 -3.3926 0
M  V30 70 H -2.3004 -3.5008 -2.8951 0
M  V30 71 H -5.729 -2.532 3.6614 0
M  V30 72 H -6.5713 -3.4495 -0.4703 0
M  V30 73 H -8.0966 -2.9443 4.2252 0
M  V30 74 H -8.9357 -3.8577 0.1127 0
M  V30 75 H -9.7047 -3.6086 2.4577 0
M  V30 END ATOM
M  V30 BEGIN BOND
M  V30 1 2 1 2
M  V30 2 2 1 3
M  V30 3 1 1 4
M  V30 4 1 1 5
M  V30 5 1 4 6
M  V30 6 2 5 7
M  V30 7 1 5 8
M  V30 8 2 6 9
M  V30 9 1 6 10
M  V30 10 1 7 11
M  V30 11 2 8 12
M  V30 12 1 9 13
M  V30 13 2 10 14
M  V30 14 2 11 15
M  V30 15 2 13 16
M  V30 16 1 13 17
M  V30 17 1 15 18
M  V30 18 1 17 19
M  V30 19 1 17 20
M  V30 20 1 18 21
M  V30 21 1 18 22
M  V30 22 1 18 23
M  V30 23 1 19 24
M  V30 24 2 19 25
M  V30 25 1 20 26
M  V30 26 2 24 27
M  V30 27 1 24 28
M  V30 28 1 25 29
M  V30 29 1 25 30
M  V30 30 1 28 31
M  V30 31 1 31 32
M  V30 32 1 31 33
M  V30 33 1 32 34
M  V30 34 1 33 35
M  V30 35 1 34 36
M  V30 36 1 35 37
M  V30 37 2 36 38
M  V30 38 1 36 39
M  V30 39 1 38 40
M  V30 40 2 39 41
M  V30 41 2 40 42
M  V30 42 1 12 15
M  V30 43 1 14 16
M  V30 44 1 30 31
M  V30 45 1 41 42
M  V30 46 1 4 43
M  V30 47 1 8 44
M  V30 48 1 9 45
M  V30 49 1 10 46
M  V30 50 1 11 47
M  V30 51 1 12 48
M  V30 52 1 14 49
M  V30 53 1 16 50
M  V30 54 1 17 51
M  V30 55 1 20 52
M  V30 56 1 20 53
M  V30 57 1 26 54
M  V30 58 1 26 55
M  V30 59 1 26 56
M  V30 60 1 29 57
M  V30 61 1 30 58
M  V30 62 1 30 59
M  V30 63 1 32 60
M  V30 64 1 32 61
M  V30 65 1 33 62
M  V30 66 1 33 63
M  V30 67 1 34 64
M  V30 68 1 34 65
M  V30 69 1 35 66
M  V30 70 1 35 67
M  V30 71 1 37 68
M  V30 72 1 37 69
M  V30 73 1 37 70
M  V30 74 1 38 71
M  V30 75 1 39 72
M  V30 76 1 40 73
M  V30 77 1 41 74
M  V30 78 1 42 75
M  V30 END BOND
M  V30 END CTAB
M  END
>  <level_0>
5189

>  <index>
5189

>  <NO.>
5190

>  <Name>
174484-81-2

>  <SMILES>
CCCC1(CCc2ccccc2)CC(O)=C(C(CC)c2cccc(NS(=O)(=O)c3ccc(C(F)(F)F)cn3)c2)C(=O)O1

>  <logBB>


>  <Class>
-1

>  <MW>
602.21

>  <nHBAcc>
6

>  <nHBDon>
2

>  <SLogP>
7.33

>  <TopoPSA>
105.59

>  <MMFF94 Energy>
113.38

$$$$
CCCCCCCCCCCC(CC1OC(=O)C1CCCCCC)OC(=O)C(CC(C)C)NC=O
Actelion Java MolfileCreator 2.0

  0  0  0  0  0  0              0 V3000
M  V30 BEGIN CTAB
M  V30 COUNTS 88 88 0 0 0
M  V30 BEGIN ATOM
M  V30 1 O 3.7538 1.1718 1.1718 0
M  V30 2 C 3.0994 0.5715 0.3517 0
M  V30 3 O 1.8939 -0.0261 0.511 0
M  V30 4 C 3.2284 0.1808 -1.1304 0
M  V30 5 C 1.806 -0.3973 -0.8972 0
M  V30 6 C 3.4701 1.34 -2.0879 0
M  V30 7 C 0.5953 0.2659 -1.5535 0
M  V30 8 C 3.601 0.8214 -3.5223 0
M  V30 9 C -0.7115 -0.5146 -1.3307 0
M  V30 10 C 3.8406 1.9298 -4.5501 0
M  V30 11 O -0.5942 -1.8267 -1.9276 0
M  V30 12 C -1.1203 -0.7255 0.1337 0
M  V30 13 C 2.6262 2.8398 -4.7493 0
M  V30 14 C -0.8507 -1.9171 -3.264 0
M  V30 15 C -1.3964 0.5778 0.8843 0
M  V30 16 C 2.8731 3.8555 -5.8654 0
M  V30 17 O -1.104 -0.9691 -3.9989 0
M  V30 18 C -0.6803 -3.3641 -3.7422 0
M  V30 19 C -1.8544 0.3036 2.3183 0
M  V30 20 C 1.671 4.7643 -6.0671 0
M  V30 21 N -1.6183 -3.585 -4.8396 0
M  V30 22 C 0.7771 -3.5757 -4.1754 0
M  V30 23 C -2.1292 1.6054 3.0729 0
M  V30 24 C -2.8718 -4.089 -4.6201 0
M  V30 25 C 1.2484 -5.0435 -4.1291 0
M  V30 26 C -2.5862 1.3314 4.5075 0
M  V30 27 O -3.3003 -4.4709 -3.5417 0
M  V30 28 C 0.4838 -5.952 -5.0909 0
M  V30 29 C 2.7464 -5.1114 -4.4409 0
M  V30 30 C -2.8558 2.6355 5.2613 0
M  V30 31 C -3.4252 2.4204 6.6665 0
M  V30 32 C -2.4439 1.7397 7.6231 0
M  V30 33 C -3.0193 1.6548 9.0387 0
M  V30 34 C -2.0428 0.9717 9.9958 0
M  V30 35 C -2.6106 0.8858 11.4035 0
M  V30 36 H 3.9901 -0.6017 -1.2509 0
M  V30 37 H 1.8007 -1.4893 -1.0082 0
M  V30 38 H 2.6688 2.0806 -2.0051 0
M  V30 39 H 4.401 1.8505 -1.8119 0
M  V30 40 H 0.7744 0.3197 -2.632 0
M  V30 41 H 0.4827 1.2988 -1.2053 0
M  V30 42 H 2.7158 0.2417 -3.8062 0
M  V30 43 H 4.4459 0.1223 -3.5672 0
M  V30 44 H -1.5299 0.0281 -1.8224 0
M  V30 45 H 4.0928 1.4579 -5.5078 0
M  V30 46 H 4.7107 2.528 -4.2538 0
M  V30 47 H -0.3641 -1.3208 0.6591 0
M  V30 48 H -2.0257 -1.3474 0.1496 0
M  V30 49 H 2.4004 3.3764 -3.8213 0
M  V30 50 H 1.7472 2.2316 -4.9947 0
M  V30 51 H -2.1697 1.1475 0.3552 0
M  V30 52 H -0.497 1.2018 0.9095 0
M  V30 53 H 3.7503 4.4672 -5.6246 0
M  V30 54 H 3.0893 3.3327 -6.8042 0
M  V30 55 H -0.9438 -4.0276 -2.9101 0
M  V30 56 H -1.0834 -0.2708 2.8459 0
M  V30 57 H -2.7627 -0.3108 2.3033 0
M  V30 58 H 1.8687 5.4818 -6.8696 0
M  V30 59 H 0.783 4.1854 -6.34 0
M  V30 60 H 1.4475 5.3275 -5.1554 0
M  V30 61 H -1.4223 -3.1605 -5.7381 0
M  V30 62 H 1.4319 -2.9959 -3.5103 0
M  V30 63 H 0.9337 -3.1666 -5.1826 0
M  V30 64 H -2.8998 2.18 2.5447 0
M  V30 65 H -1.221 2.2201 3.0884 0
M  V30 66 H -3.4742 -4.1161 -5.5433 0
M  V30 67 H 1.1032 -5.4249 -3.1103 0
M  V30 68 H -1.8135 0.7515 5.0241 0
M  V30 69 H -3.4967 0.7205 4.4921 0
M  V30 70 H -0.5594 -6.0665 -4.7841 0
M  V30 71 H 0.5037 -5.5576 -6.1122 0
M  V30 72 H 0.9218 -6.956 -5.1087 0
M  V30 73 H 3.3199 -4.5027 -3.7338 0
M  V30 74 H 2.9584 -4.7477 -5.4521 0
M  V30 75 H 3.1139 -6.1403 -4.3663 0
M  V30 76 H -3.5747 3.2365 4.6906 0
M  V30 77 H -1.9328 3.2245 5.3248 0
M  V30 78 H -4.349 1.8326 6.603 0
M  V30 79 H -3.7023 3.4 7.0757 0
M  V30 80 H -1.5014 2.2998 7.6433 0
M  V30 81 H -2.2145 0.7285 7.2695 0
M  V30 82 H -3.9641 1.0982 9.0182 0
M  V30 83 H -3.2464 2.6636 9.4047 0
M  V30 84 H -1.8158 -0.0389 9.6375 0
M  V30 85 H -1.0979 1.5266 10.0225 0
M  V30 86 H -1.8963 0.394 12.071 0
M  V30 87 H -2.8188 1.883 11.8041 0
M  V30 88 H -3.5408 0.3089 11.4168 0
M  V30 END ATOM
M  V30 BEGIN BOND
M  V30 1 2 1 2
M  V30 2 1 2 3
M  V30 3 1 2 4
M  V30 4 1 3 5
M  V30 5 1 4 6
M  V30 6 1 5 7
M  V30 7 1 6 8
M  V30 8 1 7 9
M  V30 9 1 8 10
M  V30 10 1 9 11
M  V30 11 1 9 12
M  V30 12 1 10 13
M  V30 13 1 11 14
M  V30 14 1 12 15
M  V30 15 1 13 16
M  V30 16 2 14 17
M  V30 17 1 14 18
M  V30 18 1 15 19
M  V30 19 1 16 20
M  V30 20 1 18 21
M  V30 21 1 18 22
M  V30 22 1 19 23
M  V30 23 1 21 24
M  V30 24 1 22 25
M  V30 25 1 23 26
M  V30 26 2 24 27
M  V30 27 1 25 28
M  V30 28 1 25 29
M  V30 29 1 26 30
M  V30 30 1 30 31
M  V30 31 1 31 32
M  V30 32 1 32 33
M  V30 33 1 33 34
M  V30 34 1 34 35
M  V30 35 1 4 5
M  V30 36 1 4 36
M  V30 37 1 5 37
M  V30 38 1 6 38
M  V30 39 1 6 39
M  V30 40 1 7 40
M  V30 41 1 7 41
M  V30 42 1 8 42
M  V30 43 1 8 43
M  V30 44 1 9 44
M  V30 45 1 10 45
M  V30 46 1 10 46
M  V30 47 1 12 47
M  V30 48 1 12 48
M  V30 49 1 13 49
M  V30 50 1 13 50
M  V30 51 1 15 51
M  V30 52 1 15 52
M  V30 53 1 16 53
M  V30 54 1 16 54
M  V30 55 1 18 55
M  V30 56 1 19 56
M  V30 57 1 19 57
M  V30 58 1 20 58
M  V30 59 1 20 59
M  V30 60 1 20 60
M  V30 61 1 21 61
M  V30 62 1 22 62
M  V30 63 1 22 63
M  V30 64 1 23 64
M  V30 65 1 23 65
M  V30 66 1 24 66
M  V30 67 1 25 67
M  V30 68 1 26 68
M  V30 69 1 26 69
M  V30 70 1 28 70
M  V30 71 1 28 71
M  V30 72 1 28 72
M  V30 73 1 29 73
M  V30 74 1 29 74
M  V30 75 1 29 75
M  V30 76 1 30 76
M  V30 77 1 30 77
M  V30 78 1 31 78
M  V30 79 1 31 79
M  V30 80 1 32 80
M  V30 81 1 32 81
M  V30 82 1 33 82
M  V30 83 1 33 83
M  V30 84 1 34 84
M  V30 85 1 34 85
M  V30 86 1 35 86
M  V30 87 1 35 87
M  V30 88 1 35 88
M  V30 END BOND
M  V30 END CTAB
M  END
>  <level_0>
5192

>  <index>
5192

>  <NO.>
5193

>  <Name>
orlistat

>  <SMILES>
CCCCCCCCCCCC(CC1OC(=O)C1CCCCCC)OC(=O)C(CC(C)C)NC=O

>  <logBB>


>  <Class>
-1

>  <MW>
495.39

>  <nHBAcc>
5

>  <nHBDon>
1

>  <SLogP>
6.88

>  <TopoPSA>
81.7

>  <MMFF94 Energy>
0.49963

$$$$
CCCCCCCCCCCCCCCC(=O)OCC(NC(=O)C(Cl)Cl)C(O)c1ccc([N+](=O)[O-])cc1
Actelion Java MolfileCreator 2.0

  0  0  0  0  0  0              0 V3000
M  V30 BEGIN CTAB
M  V30 COUNTS 79 79 0 0 0
M  V30 BEGIN ATOM
M  V30 1 Cl -0.9527 -2.7013 -2.1447 0
M  V30 2 C -2.2291 -3.1279 -3.2968 0
M  V30 3 Cl -2.1839 -4.853 -3.7106 0
M  V30 4 C -3.6044 -2.8131 -2.7027 0
M  V30 5 O -3.9305 -3.0826 -1.5479 0
M  V30 6 N -4.4816 -2.1988 -3.5823 0
M  V30 7 C -5.8525 -1.8151 -3.2062 0
M  V30 8 C -6.892 -2.8735 -3.6765 0
M  V30 9 C -6.205 -0.4293 -3.7965 0
M  V30 10 O -8.2214 -2.4338 -3.3836 0
M  V30 11 C -6.6857 -4.2563 -3.0837 0
M  V30 12 O -5.2948 0.5911 -3.3329 0
M  V30 13 C -6.2746 -5.3218 -3.9009 0
M  V30 14 C -6.8829 -4.4873 -1.7115 0
M  V30 15 C -4.1343 0.7224 -4.0301 0
M  V30 16 C -6.0542 -6.591 -3.3591 0
M  V30 17 C -6.6653 -5.7527 -1.161 0
M  V30 18 O -3.8071 0.033 -4.9904 0
M  V30 19 C -3.2546 1.7726 -3.4062 0
M  V30 20 C -6.2487 -6.801 -1.9884 0
M  V30 21 C -2.1926 1.1033 -2.5418 0
M  V30 22 N -6.0185 -8.1333 -1.4165 0 CHG=1
M  V30 23 C -1.2781 2.1306 -1.877 0
M  V30 24 O -5.6206 -9.0266 -2.1783 0
M  V30 25 O -6.249 -8.292 -0.209 0 CHG=-1
M  V30 26 C -0.2122 1.447 -1.0187 0
M  V30 27 C 0.7052 2.4713 -0.3493 0
M  V30 28 C 1.7708 1.7862 0.5078 0
M  V30 29 C 2.6889 2.81 1.1776 0
M  V30 30 C 3.7544 2.1247 2.0347 0
M  V30 31 C 4.6726 3.1484 2.7045 0
M  V30 32 C 5.7381 2.4631 3.5616 0
M  V30 33 C 6.6563 3.4868 4.2315 0
M  V30 34 C 7.7218 2.8015 5.0885 0
M  V30 35 C 8.6401 3.8252 5.7584 0
M  V30 36 C 9.7048 3.1403 6.6148 0
M  V30 37 C 10.6197 4.1545 7.2826 0
M  V30 38 H -2.0593 -2.5538 -4.2117 0
M  V30 39 H -4.1538 -1.9027 -4.501 0
M  V30 40 H -5.8881 -1.7173 -2.1139 0
M  V30 41 H -6.8364 -2.95 -4.7701 0
M  V30 42 H -7.2015 -0.1166 -3.4673 0
M  V30 43 H -6.2225 -0.4501 -4.8935 0
M  V30 44 H -8.7823 -3.226 -3.3006 0
M  V30 45 H -6.1088 -5.171 -4.9662 0
M  V30 46 H -7.1843 -3.6713 -1.0554 0
M  V30 47 H -5.7259 -7.397 -4.0124 0
M  V30 48 H -6.8096 -5.8968 -0.0922 0
M  V30 49 H -3.8674 2.4638 -2.8162 0
M  V30 50 H -2.8028 2.3608 -4.2126 0
M  V30 51 H -1.5945 0.421 -3.1587 0
M  V30 52 H -2.6771 0.486 -1.7745 0
M  V30 53 H -1.8759 2.8059 -1.2529 0
M  V30 54 H -0.7935 2.744 -2.6462 0
M  V30 55 H 0.385 0.7721 -1.6437 0
M  V30 56 H -0.6976 0.8316 -0.2513 0
M  V30 57 H 0.1081 3.146 0.2763 0
M  V30 58 H 1.1905 3.0866 -1.1166 0
M  V30 59 H 2.3675 1.1115 -0.1178 0
M  V30 60 H 1.2852 1.1709 1.2751 0
M  V30 61 H 2.092 3.4847 1.8035 0
M  V30 62 H 3.1743 3.4253 0.4104 0
M  V30 63 H 4.3511 1.4501 1.4089 0
M  V30 64 H 3.2688 1.5094 2.8019 0
M  V30 65 H 4.0758 3.8231 3.3304 0
M  V30 66 H 5.158 3.7638 1.9374 0
M  V30 67 H 6.3348 1.7885 2.9358 0
M  V30 68 H 5.2526 1.8478 4.3288 0
M  V30 69 H 6.0595 4.1615 4.8574 0
M  V30 70 H 7.1417 4.1022 3.4643 0
M  V30 71 H 8.3185 2.1269 4.4627 0
M  V30 72 H 7.2362 2.1862 5.8558 0
M  V30 73 H 8.0434 4.5001 6.3843 0
M  V30 74 H 9.1255 4.4408 4.9914 0
M  V30 75 H 9.2246 2.5268 7.386 0
M  V30 76 H 10.3068 2.4676 5.9931 0
M  V30 77 H 11.3732 3.6433 7.8898 0
M  V30 78 H 11.1405 4.7638 6.537 0
M  V30 79 H 10.0523 4.8234 7.9377 0
M  V30 END ATOM
M  V30 BEGIN BOND
M  V30 1 1 1 2
M  V30 2 1 2 3
M  V30 3 1 2 4
M  V30 4 2 4 5
M  V30 5 1 4 6
M  V30 6 1 6 7
M  V30 7 1 7 8
M  V30 8 1 7 9
M  V30 9 1 8 10
M  V30 10 1 8 11
M  V30 11 1 9 12
M  V30 12 2 11 13
M  V30 13 1 11 14
M  V30 14 1 12 15
M  V30 15 1 13 16
M  V30 16 2 14 17
M  V30 17 2 15 18
M  V30 18 1 15 19
M  V30 19 2 16 20
M  V30 20 1 19 21
M  V30 21 1 20 22
M  V30 22 1 21 23
M  V30 23 2 22 24
M  V30 24 1 22 25
M  V30 25 1 23 26
M  V30 26 1 26 27
M  V30 27 1 27 28
M  V30 28 1 28 29
M  V30 29 1 29 30
M  V30 30 1 30 31
M  V30 31 1 31 32
M  V30 32 1 32 33
M  V30 33 1 33 34
M  V30 34 1 34 35
M  V30 35 1 35 36
M  V30 36 1 36 37
M  V30 37 1 17 20
M  V30 38 1 2 38
M  V30 39 1 6 39
M  V30 40 1 7 40
M  V30 41 1 8 41
M  V30 42 1 9 42
M  V30 43 1 9 43
M  V30 44 1 10 44
M  V30 45 1 13 45
M  V30 46 1 14 46
M  V30 47 1 16 47
M  V30 48 1 17 48
M  V30 49 1 19 49
M  V30 50 1 19 50
M  V30 51 1 21 51
M  V30 52 1 21 52
M  V30 53 1 23 53
M  V30 54 1 23 54
M  V30 55 1 26 55
M  V30 56 1 26 56
M  V30 57 1 27 57
M  V30 58 1 27 58
M  V30 59 1 28 59
M  V30 60 1 28 60
M  V30 61 1 29 61
M  V30 62 1 29 62
M  V30 63 1 30 63
M  V30 64 1 30 64
M  V30 65 1 31 65
M  V30 66 1 31 66
M  V30 67 1 32 67
M  V30 68 1 32 68
M  V30 69 1 33 69
M  V30 70 1 33 70
M  V30 71 1 34 71
M  V30 72 1 34 72
M  V30 73 1 35 73
M  V30 74 1 35 74
M  V30 75 1 36 75
M  V30 76 1 36 76
M  V30 77 1 37 77
M  V30 78 1 37 78
M  V30 79 1 37 79
M  V30 END BOND
M  V30 END CTAB
M  END
>  <level_0>
5193

>  <index>
5193

>  <NO.>
5194

>  <Name>
chloramphenicol palmitate

>  <SMILES>
CCCCCCCCCCCCCCCC(=O)OCC(NC(=O)C(Cl)Cl)C(O)c1ccc([N+](=O)[O-])cc1

>  <logBB>


>  <Class>
-1

>  <MW>
560.24

>  <nHBAcc>
6

>  <nHBDon>
2

>  <SLogP>
6.94

>  <TopoPSA>
118.77

>  <MMFF94 Energy>
107.71

$$$$
CCCCCCCCCCCCCCCC(=O)OCC=C(C)C=CC=C(C)C=CC1=C(C)CCCC1(C)C
Actelion Java MolfileCreator 2.0

  0  0  0  0  0  0              0 V3000
M  V30 BEGIN CTAB
M  V30 COUNTS 98 98 0 0 0
M  V30 BEGIN ATOM
M  V30 1 O -0.2334 3.9749 -0.7005 0
M  V30 2 C -0.5054 2.9696 -1.3408 0
M  V30 3 O 0.4081 2.1226 -1.8911 0
M  V30 4 C -1.9001 2.492 -1.6758 0
M  V30 5 C 1.7683 2.4907 -1.6326 0
M  V30 6 C -2.9811 3.1471 -0.8163 0
M  V30 7 C 2.6353 1.4666 -2.3028 0
M  V30 8 C -2.9686 2.6374 0.6282 0
M  V30 9 C 3.6394 0.7332 -1.7771 0
M  V30 10 C -4.0769 3.2911 1.4562 0
M  V30 11 C 4.3335 -0.2192 -2.6478 0
M  V30 12 C 4.0978 0.8359 -0.3441 0
M  V30 13 C -4.0679 2.7816 2.8985 0
M  V30 14 C 5.3404 -1.0383 -2.2975 0
M  V30 15 C -5.176 3.4359 3.7271 0
M  V30 16 C 5.9645 -1.9514 -3.2366 0
M  V30 17 C -5.167 2.9214 5.1683 0
M  V30 18 C 6.9764 -2.8136 -2.9991 0
M  V30 19 C -6.1818 3.6263 6.0731 0
M  V30 20 C 7.4488 -3.6456 -4.1093 0
M  V30 21 C 7.6645 -2.9865 -1.6673 0
M  V30 22 C -7.6365 3.3526 5.6851 0
M  V30 23 C 8.4347 -4.5583 -4.0663 0
M  V30 24 C -8.6053 3.984 6.6878 0
M  V30 25 C 8.8315 -5.3604 -5.221 0
M  V30 26 C -10.0605 3.7157 6.3002 0
M  V30 27 C 9.4436 -4.8043 -6.2954 0
M  V30 28 C 8.5002 -6.8663 -5.1351 0
M  V30 29 C -11.0287 4.3463 7.3027 0
M  V30 30 C 9.7982 -5.6004 -7.5325 0
M  V30 31 C 9.8644 -3.3563 -6.3946 0
M  V30 32 C 9.2305 -7.6665 -6.2472 0
M  V30 33 C 8.936 -7.488 -3.7877 0
M  V30 34 C 6.9743 -7.0611 -5.2858 0
M  V30 35 C -12.4839 4.0781 6.9151 0
M  V30 36 C 9.1517 -6.9777 -7.6004 0
M  V30 37 C -13.4514 4.7083 7.9168 0
M  V30 38 C -14.8991 4.444 7.5351 0
M  V30 39 H -1.9446 1.4034 -1.5578 0
M  V30 40 H -2.0808 2.7346 -2.7289 0
M  V30 41 H 1.9257 2.5441 -0.5531 0
M  V30 42 H 1.9708 3.471 -2.0793 0
M  V30 43 H -3.959 2.9263 -1.2618 0
M  V30 44 H -2.8648 4.2377 -0.8268 0
M  V30 45 H 2.3832 1.3311 -3.3545 0
M  V30 46 H -1.9978 2.8454 1.0926 0
M  V30 47 H -3.1016 1.5487 0.6334 0
M  V30 48 H -5.0509 3.0802 0.9983 0
M  V30 49 H -3.9456 4.38 1.4507 0
M  V30 50 H 3.9809 -0.2538 -3.6789 0
M  V30 51 H 3.9484 -0.1169 0.1754 0
M  V30 52 H 3.5684 1.5977 0.2312 0
M  V30 53 H 5.1606 1.0992 -0.2985 0
M  V30 54 H -3.0936 2.9925 3.356 0
M  V30 55 H -4.1994 1.6927 2.9046 0
M  V30 56 H 5.7121 -1.0317 -1.28 0
M  V30 57 H -6.144 3.2255 3.2589 0
M  V30 58 H -5.0422 4.5244 3.7243 0
M  V30 59 H 5.5445 -1.9132 -4.2426 0
M  V30 60 H -4.1676 3.0714 5.5954 0
M  V30 61 H -5.3547 1.8408 5.1772 0
M  V30 62 H -5.9931 4.7068 6.0655 0
M  V30 63 H -6.0158 3.2846 7.1024 0
M  V30 64 H 6.939 -3.504 -5.063 0
M  V30 65 H 7.275 -2.3368 -0.8811 0
M  V30 66 H 7.55 -4.0153 -1.3078 0
M  V30 67 H 8.7333 -2.7619 -1.7563 0
M  V30 68 H -7.8082 2.2704 5.6408 0
M  V30 69 H -7.8418 3.7563 4.6874 0
M  V30 70 H 8.9739 -4.7679 -3.1472 0
M  V30 71 H -8.4311 5.066 6.7352 0
M  V30 72 H -8.4122 3.581 7.6895 0
M  V30 73 H -10.2343 2.6338 6.2525 0
M  V30 74 H -10.2544 4.119 5.2989 0
M  V30 75 H -10.8549 5.4283 7.3506 0
M  V30 76 H -10.8351 3.943 8.3041 0
M  V30 77 H 9.5072 -5.0404 -8.4297 0
M  V30 78 H 10.8894 -5.7129 -7.5667 0
M  V30 79 H 10.9065 -3.2914 -6.7268 0
M  V30 80 H 9.2378 -2.8327 -7.124 0
M  V30 81 H 9.8081 -2.8155 -5.4465 0
M  V30 82 H 10.2898 -7.7935 -5.9832 0
M  V30 83 H 8.8123 -8.6777 -6.3289 0
M  V30 84 H 8.7854 -8.5741 -3.7902 0
M  V30 85 H 9.9974 -7.2998 -3.5884 0
M  V30 86 H 8.3602 -7.0899 -2.9445 0
M  V30 87 H 6.7141 -8.1253 -5.3218 0
M  V30 88 H 6.4265 -6.6248 -4.4423 0
M  V30 89 H 6.591 -6.5936 -6.1994 0
M  V30 90 H -12.658 2.9963 6.8671 0
M  V30 91 H -12.6778 4.4813 5.9137 0
M  V30 92 H 8.1081 -6.8869 -7.9232 0
M  V30 93 H 9.6605 -7.5835 -8.359 0
M  V30 94 H -13.2646 4.3056 8.9191 0
M  V30 95 H -13.2844 5.7907 7.9657 0
M  V30 96 H -15.5735 4.9034 8.2646 0
M  V30 97 H -15.128 4.8631 6.5501 0
M  V30 98 H -15.108 3.3697 7.5088 0
M  V30 END ATOM
M  V30 BEGIN BOND
M  V30 1 2 1 2
M  V30 2 1 2 3
M  V30 3 1 2 4
M  V30 4 1 3 5
M  V30 5 1 4 6
M  V30 6 1 5 7
M  V30 7 1 6 8
M  V30 8 2 7 9
M  V30 9 1 8 10
M  V30 10 1 9 11
M  V30 11 1 9 12
M  V30 12 1 10 13
M  V30 13 2 11 14
M  V30 14 1 13 15
M  V30 15 1 14 16
M  V30 16 1 15 17
M  V30 17 2 16 18
M  V30 18 1 17 19
M  V30 19 1 18 20
M  V30 20 1 18 21
M  V30 21 1 19 22
M  V30 22 2 20 23
M  V30 23 1 22 24
M  V30 24 1 23 25
M  V30 25 1 24 26
M  V30 26 2 25 27
M  V30 27 1 25 28
M  V30 28 1 26 29
M  V30 29 1 27 30
M  V30 30 1 27 31
M  V30 31 1 28 32
M  V30 32 1 28 33
M  V30 33 1 28 34
M  V30 34 1 29 35
M  V30 35 1 30 36
M  V30 36 1 35 37
M  V30 37 1 37 38
M  V30 38 1 32 36
M  V30 39 1 4 39
M  V30 40 1 4 40
M  V30 41 1 5 41
M  V30 42 1 5 42
M  V30 43 1 6 43
M  V30 44 1 6 44
M  V30 45 1 7 45
M  V30 46 1 8 46
M  V30 47 1 8 47
M  V30 48 1 10 48
M  V30 49 1 10 49
M  V30 50 1 11 50
M  V30 51 1 12 51
M  V30 52 1 12 52
M  V30 53 1 12 53
M  V30 54 1 13 54
M  V30 55 1 13 55
M  V30 56 1 14 56
M  V30 57 1 15 57
M  V30 58 1 15 58
M  V30 59 1 16 59
M  V30 60 1 17 60
M  V30 61 1 17 61
M  V30 62 1 19 62
M  V30 63 1 19 63
M  V30 64 1 20 64
M  V30 65 1 21 65
M  V30 66 1 21 66
M  V30 67 1 21 67
M  V30 68 1 22 68
M  V30 69 1 22 69
M  V30 70 1 23 70
M  V30 71 1 24 71
M  V30 72 1 24 72
M  V30 73 1 26 73
M  V30 74 1 26 74
M  V30 75 1 29 75
M  V30 76 1 29 76
M  V30 77 1 30 77
M  V30 78 1 30 78
M  V30 79 1 31 79
M  V30 80 1 31 80
M  V30 81 1 31 81
M  V30 82 1 32 82
M  V30 83 1 32 83
M  V30 84 1 33 84
M  V30 85 1 33 85
M  V30 86 1 33 86
M  V30 87 1 34 87
M  V30 88 1 34 88
M  V30 89 1 34 89
M  V30 90 1 35 90
M  V30 91 1 35 91
M  V30 92 1 36 92
M  V30 93 1 36 93
M  V30 94 1 37 94
M  V30 95 1 37 95
M  V30 96 1 38 96
M  V30 97 1 38 97
M  V30 98 1 38 98
M  V30 END BOND
M  V30 END CTAB
M  END
>  <level_0>
5194

>  <index>
5194

>  <NO.>
5195

>  <Name>
retinol palmitate

>  <SMILES>
CCCCCCCCCCCCCCCC(=O)OCC=C(C)C=CC=C(C)C=CC1=C(C)CCCC1(C)C

>  <logBB>


>  <Class>
-1

>  <MW>
524.46

>  <nHBAcc>
2

>  <nHBDon>
0

>  <SLogP>
11.54

>  <TopoPSA>
26.3

>  <MMFF94 Energy>
23.674

$$$$
CCCCCCCCOc1ccccc1C(=O)Nc1ccc(C(=O)OCC[N+](C)(CC)CC)cc1
Actelion Java MolfileCreator 2.0

  0  0  0  0  0  0              0 V3000
M  V30 BEGIN CTAB
M  V30 COUNTS 78 79 0 0 0
M  V30 BEGIN ATOM
M  V30 1 O 1.9605 -2.9026 -3.7669 0
M  V30 2 C 1.8093 -2.3419 -2.6945 0
M  V30 3 O 2.728 -2.3128 -1.6946 0
M  V30 4 C 0.5443 -1.6983 -2.259 0
M  V30 5 C 4.0292 -2.8315 -2.0161 0
M  V30 6 C 0.484 -0.8302 -1.162 0
M  V30 7 C -0.6221 -1.986 -2.9752 0
M  V30 8 C 4.4324 -3.9719 -1.0675 0
M  V30 9 C -0.7411 -0.2741 -0.7767 0
M  V30 10 C -1.8446 -1.4349 -2.5796 0
M  V30 11 N 3.7358 -5.3449 -1.2928 0 CHG=1
M  V30 12 C -1.9141 -0.5899 -1.4704 0
M  V30 13 C 3.7766 -5.8067 -2.7757 0
M  V30 14 C 4.4313 -6.4273 -0.4222 0
M  V30 15 C 2.2524 -5.2682 -0.8994 0
M  V30 16 N -3.1118 -0.0011 -1.0319 0
M  V30 17 C 5.1824 -5.9233 -3.3432 0
M  V30 18 C 4.2798 -6.2064 1.0761 0
M  V30 19 C -4.3918 -0.4818 -1.2351 0
M  V30 20 O -4.6493 -1.5362 -1.8114 0
M  V30 21 C -5.5258 0.3481 -0.6901 0
M  V30 22 C -5.3724 1.513 0.0948 0
M  V30 23 C -6.8243 -0.0968 -1.007 0
M  V30 24 O -4.095 1.9168 0.398 0
M  V30 25 C -6.5174 2.1949 0.5358 0
M  V30 26 C -7.9512 0.5925 -0.5622 0
M  V30 27 C -3.9272 3.1298 1.138 0
M  V30 28 C -7.7964 1.7375 0.2081 0
M  V30 29 C -2.4265 3.366 1.2924 0
M  V30 30 C -2.1323 4.6448 2.0731 0
M  V30 31 C -0.6269 4.8707 2.2215 0
M  V30 32 C -0.3307 6.1515 3.0036 0
M  V30 33 C 1.1747 6.3771 3.1518 0
M  V30 34 C 1.4708 7.657 3.9333 0
M  V30 35 C 2.9665 7.8849 4.083 0
M  V30 36 H 4.7238 -2.0002 -1.8474 0
M  V30 37 H 4.1445 -3.1065 -3.0681 0
M  V30 38 H 1.3766 -0.5686 -0.6002 0
M  V30 39 H -0.5965 -2.64 -3.8449 0
M  V30 40 H 4.2108 -3.677 -0.0366 0
M  V30 41 H 5.5088 -4.1547 -1.1538 0
M  V30 42 H -0.7724 0.3967 0.0789 0
M  V30 43 H -2.7329 -1.6696 -3.1617 0
M  V30 44 H 3.1861 -5.0995 -3.3623 0
M  V30 45 H 3.2705 -6.7786 -2.819 0
M  V30 46 H 4.0001 -7.3945 -0.7045 0
M  V30 47 H 5.4938 -6.4239 -0.6838 0
M  V30 48 H 1.6989 -4.7528 -1.6839 0
M  V30 49 H 1.8696 -6.289 -0.8039 0
M  V30 50 H 2.1616 -4.7295 0.0472 0
M  V30 51 H -3.0363 0.8323 -0.4567 0
M  V30 52 H 5.7659 -6.6991 -2.8406 0
M  V30 53 H 5.1235 -6.2043 -4.4003 0
M  V30 54 H 5.7342 -4.9815 -3.2896 0
M  V30 55 H 4.8079 -7.0015 1.6138 0
M  V30 56 H 3.2351 -6.2441 1.3968 0
M  V30 57 H 4.7135 -5.2572 1.4009 0
M  V30 58 H -6.9659 -0.9921 -1.6111 0
M  V30 59 H -6.456 3.0923 1.1438 0
M  V30 60 H -8.9454 0.234 -0.8184 0
M  V30 61 H -4.3848 3.0307 2.1294 0
M  V30 62 H -4.375 3.9694 0.5932 0
M  V30 63 H -8.6735 2.2782 0.5578 0
M  V30 64 H -1.9735 2.5016 1.794 0
M  V30 65 H -1.963 3.412 0.2988 0
M  V30 66 H -2.5945 4.5837 3.066 0
M  V30 67 H -2.5837 5.5017 1.5584 0
M  V30 68 H -0.165 4.9315 1.2285 0
M  V30 69 H -0.1758 4.0135 2.736 0
M  V30 70 H -0.7926 6.0907 3.9966 0
M  V30 71 H -0.7818 7.0088 2.489 0
M  V30 72 H 1.6368 6.4378 2.1589 0
M  V30 73 H 1.6259 5.5199 3.6663 0
M  V30 74 H 1.0254 8.5178 3.421 0
M  V30 75 H 1.0144 7.5999 4.9285 0
M  V30 76 H 3.1553 8.8052 4.6447 0
M  V30 77 H 3.4377 7.056 4.6207 0
M  V30 78 H 3.4488 7.979 3.1048 0
M  V30 END ATOM
M  V30 BEGIN BOND
M  V30 1 2 1 2
M  V30 2 1 2 3
M  V30 3 1 2 4
M  V30 4 1 3 5
M  V30 5 2 4 6
M  V30 6 1 4 7
M  V30 7 1 5 8
M  V30 8 1 6 9
M  V30 9 2 7 10
M  V30 10 1 8 11
M  V30 11 2 9 12
M  V30 12 1 11 13
M  V30 13 1 11 14
M  V30 14 1 11 15
M  V30 15 1 12 16
M  V30 16 1 13 17
M  V30 17 1 14 18
M  V30 18 1 16 19
M  V30 19 2 19 20
M  V30 20 1 19 21
M  V30 21 2 21 22
M  V30 22 1 21 23
M  V30 23 1 22 24
M  V30 24 1 22 25
M  V30 25 2 23 26
M  V30 26 1 24 27
M  V30 27 2 25 28
M  V30 28 1 27 29
M  V30 29 1 29 30
M  V30 30 1 30 31
M  V30 31 1 31 32
M  V30 32 1 32 33
M  V30 33 1 33 34
M  V30 34 1 34 35
M  V30 35 1 10 12
M  V30 36 1 26 28
M  V30 37 1 5 36
M  V30 38 1 5 37
M  V30 39 1 6 38
M  V30 40 1 7 39
M  V30 41 1 8 40
M  V30 42 1 8 41
M  V30 43 1 9 42
M  V30 44 1 10 43
M  V30 45 1 13 44
M  V30 46 1 13 45
M  V30 47 1 14 46
M  V30 48 1 14 47
M  V30 49 1 15 48
M  V30 50 1 15 49
M  V30 51 1 15 50
M  V30 52 1 16 51
M  V30 53 1 17 52
M  V30 54 1 17 53
M  V30 55 1 17 54
M  V30 56 1 18 55
M  V30 57 1 18 56
M  V30 58 1 18 57
M  V30 59 1 23 58
M  V30 60 1 25 59
M  V30 61 1 26 60
M  V30 62 1 27 61
M  V30 63 1 27 62
M  V30 64 1 28 63
M  V30 65 1 29 64
M  V30 66 1 29 65
M  V30 67 1 30 66
M  V30 68 1 30 67
M  V30 69 1 31 68
M  V30 70 1 31 69
M  V30 71 1 32 70
M  V30 72 1 32 71
M  V30 73 1 33 72
M  V30 74 1 33 73
M  V30 75 1 34 74
M  V30 76 1 34 75
M  V30 77 1 35 76
M  V30 78 1 35 77
M  V30 79 1 35 78
M  V30 END BOND
M  V30 END CTAB
M  END
>  <level_0>
5195

>  <index>
5195

>  <NO.>
5196

>  <Name>
otilonium

>  <SMILES>
CCCCCCCCOc1ccccc1C(=O)Nc1ccc(C(=O)OCC[N+](C)(CC)CC)cc1

>  <logBB>


>  <Class>
-1

>  <MW>
483.32

>  <nHBAcc>
4

>  <nHBDon>
1

>  <SLogP>
6.32

>  <TopoPSA>
64.63

>  <MMFF94 Energy>
86.037

$$$$
CCCCN(CCCC)CCC(O)c1cc2c(Cl)cc(Cl)cc2c2cc(C(F)(F)F)ccc12
Actelion Java MolfileCreator 2.0

  0  0  0  0  0  0              0 V3000
M  V30 BEGIN CTAB
M  V30 COUNTS 63 65 0 0 0
M  V30 BEGIN ATOM
M  V30 1 Cl -1.4539 -4.6908 -1.2923 0
M  V30 2 C 0.056 -4.1787 -1.9809 0
M  V30 3 C 0.3311 -2.8145 -2.2804 0
M  V30 4 C 0.9864 -5.1852 -2.2261 0
M  V30 5 C 1.5837 -2.4575 -2.8398 0
M  V30 6 C -0.6015 -1.7898 -2.0393 0
M  V30 7 C 2.2073 -4.8469 -2.7736 0
M  V30 8 C 1.8729 -1.0729 -3.1354 0
M  V30 9 C 2.5018 -3.5163 -3.0738 0
M  V30 10 C -0.3549 -0.4354 -2.3304 0
M  V30 11 Cl 3.3735 -6.0728 -3.0865 0
M  V30 12 C 0.9008 -0.0651 -2.8726 0
M  V30 13 C 3.1133 -0.6475 -3.6874 0
M  V30 14 C -1.4486 0.5844 -2.016 0 CFG=1
M  V30 15 C 1.2272 1.2831 -3.1637 0
M  V30 16 C 3.4202 0.695 -3.9653 0
M  V30 17 O -2.7501 -0.0029 -2.0841 0
M  V30 18 C -1.2655 1.2819 -0.6589 0
M  V30 19 C 2.4573 1.6589 -3.7016 0
M  V30 20 C 4.751 1.0699 -4.5694 0
M  V30 21 C -1.4686 0.3562 0.5508 0
M  V30 22 F 5.7742 0.2894 -4.1226 0
M  V30 23 F 4.7536 0.9506 -5.9251 0
M  V30 24 F 5.1196 2.3539 -4.304 0
M  V30 25 N -1.2681 1.0956 1.8197 0
M  V30 26 C 0.1713 1.1642 2.151 0
M  V30 27 C -2.0261 0.4586 2.9161 0
M  V30 28 C 0.4765 2.3448 3.0851 0
M  V30 29 C -3.5079 0.8612 2.8835 0
M  V30 30 C 1.9758 2.5483 3.3237 0
M  V30 31 C -4.2728 0.2392 4.0537 0
M  V30 32 C 2.63 1.4013 4.0784 0
M  V30 33 C -5.7406 0.6356 4.0339 0
M  V30 34 H 0.7571 -6.2208 -1.9912 0
M  V30 35 H -1.5641 -2.0425 -1.5927 0
M  V30 36 H 3.4814 -3.3212 -3.5005 0
M  V30 37 H 3.8919 -1.3729 -3.9157 0
M  V30 38 H -1.4582 1.3476 -2.8014 0
M  V30 39 H 0.5225 2.0892 -2.9707 0
M  V30 40 H -2.8244 -0.4215 -2.9596 0
M  V30 41 H -0.2808 1.7595 -0.6224 0
M  V30 42 H -2.01 2.0867 -0.5885 0
M  V30 43 H 2.6533 2.7102 -3.9081 0
M  V30 44 H -2.488 -0.0403 0.4919 0
M  V30 45 H -0.7996 -0.5114 0.5127 0
M  V30 46 H 0.766 1.3143 1.2422 0
M  V30 47 H 0.5086 0.2156 2.5866 0
M  V30 48 H -1.6331 0.7752 3.8891 0
M  V30 49 H -1.9186 -0.6335 2.8832 0
M  V30 50 H -0.0221 2.2204 4.0527 0
M  V30 51 H 0.0757 3.2648 2.6403 0
M  V30 52 H -3.9788 0.5481 1.9453 0
M  V30 53 H -3.5905 1.9544 2.9345 0
M  V30 54 H 2.4902 2.6968 2.3672 0
M  V30 55 H 2.1129 3.4695 3.9028 0
M  V30 56 H -4.1946 -0.8532 4.0101 0
M  V30 57 H -3.8276 0.5594 5.003 0
M  V30 58 H 3.6728 1.6469 4.3037 0
M  V30 59 H 2.1152 1.2091 5.0251 0
M  V30 60 H 2.6274 0.4799 3.489 0
M  V30 61 H -6.2675 0.1809 4.8787 0
M  V30 62 H -5.8546 1.7219 4.1074 0
M  V30 63 H -6.2252 0.3006 3.1113 0
M  V30 END ATOM
M  V30 BEGIN BOND
M  V30 1 1 1 2
M  V30 2 1 2 3
M  V30 3 2 2 4
M  V30 4 1 3 5
M  V30 5 2 3 6
M  V30 6 1 4 7
M  V30 7 2 5 8
M  V30 8 1 5 9
M  V30 9 1 6 10
M  V30 10 1 7 11
M  V30 11 1 8 12
M  V30 12 1 8 13
M  V30 13 1 10 14
M  V30 14 1 12 15
M  V30 15 2 13 16
M  V30 16 1 14 17
M  V30 17 1 14 18
M  V30 18 2 15 19
M  V30 19 1 16 20
M  V30 20 1 18 21
M  V30 21 1 20 22
M  V30 22 1 20 23
M  V30 23 1 20 24
M  V30 24 1 21 25
M  V30 25 1 25 26
M  V30 26 1 25 27
M  V30 27 1 26 28
M  V30 28 1 27 29
M  V30 29 1 28 30
M  V30 30 1 29 31
M  V30 31 1 30 32
M  V30 32 1 31 33
M  V30 33 2 7 9
M  V30 34 2 10 12
M  V30 35 1 16 19
M  V30 36 1 4 34
M  V30 37 1 6 35
M  V30 38 1 9 36
M  V30 39 1 13 37
M  V30 40 1 14 38
M  V30 41 1 15 39
M  V30 42 1 17 40
M  V30 43 1 18 41
M  V30 44 1 18 42
M  V30 45 1 19 43
M  V30 46 1 21 44
M  V30 47 1 21 45
M  V30 48 1 26 46
M  V30 49 1 26 47
M  V30 50 1 27 48
M  V30 51 1 27 49
M  V30 52 1 28 50
M  V30 53 1 28 51
M  V30 54 1 29 52
M  V30 55 1 29 53
M  V30 56 1 30 54
M  V30 57 1 30 55
M  V30 58 1 31 56
M  V30 59 1 31 57
M  V30 60 1 32 58
M  V30 61 1 32 59
M  V30 62 1 32 60
M  V30 63 1 33 61
M  V30 64 1 33 62
M  V30 65 1 33 63
M  V30 END BOND
M  V30 BEGIN COLLECTION
M  V30 MDLV30/STERAC1 ATOMS=(1 14)
M  V30 END COLLECTION
M  V30 END CTAB
M  END
>  <level_0>
5198

>  <index>
5198

>  <NO.>
5199

>  <Name>
halofantrine hydrochloride

>  <SMILES>
CCCCN(CCCC)CCC(O)c1cc2c(Cl)cc(Cl)cc2c2cc(C(F)(F)F)ccc12

>  <logBB>


>  <Class>
-1

>  <MW>
499.17

>  <nHBAcc>
2

>  <nHBDon>
1

>  <SLogP>
8.64

>  <TopoPSA>
23.47

>  <MMFF94 Energy>
82.56

$$$$
CCCCNc1ccc(C(=O)OCCOCCOCCOCCOCCOCCOCCOCCOCCOC)cc1
Actelion Java MolfileCreator 2.0

  0  0  0  0  0  0              0 V3000
M  V30 BEGIN CTAB
M  V30 COUNTS 95 95 0 0 0
M  V30 BEGIN ATOM
M  V30 1 O 6.1091 3.9911 -7.4444 0
M  V30 2 C 5.2349 3.8603 -6.6019 0
M  V30 3 O 5.3613 4.127 -5.2808 0
M  V30 4 C 3.8563 3.3913 -6.9053 0
M  V30 5 C 6.6804 4.5262 -4.8752 0
M  V30 6 C 3.4939 3.2117 -8.2433 0
M  V30 7 C 2.9181 3.1179 -5.9061 0
M  V30 8 C 6.67 4.7871 -3.3717 0
M  V30 9 C 2.2068 2.7691 -8.5757 0
M  V30 10 C 1.6351 2.6753 -6.2512 0
M  V30 11 O 6.4976 3.5476 -2.6787 0
M  V30 12 C 1.2568 2.4884 -7.588 0
M  V30 13 C 6.4362 3.7343 -1.2603 0
M  V30 14 N -0.0282 2.0636 -7.8644 0
M  V30 15 C 6.0866 2.4039 -0.5939 0
M  V30 16 C -0.5412 1.8429 -9.2031 0
M  V30 17 O 4.6837 2.1649 -0.7339 0
M  V30 18 C -2.0149 1.4277 -9.1696 0
M  V30 19 C 4.2976 0.8098 -0.4831 0
M  V30 20 C -3.003 2.5918 -9.0351 0
M  V30 21 C 4.4846 0.3645 0.9703 0
M  V30 22 C -2.9363 3.3259 -7.7061 0
M  V30 23 O 3.6153 1.1138 1.8216 0
M  V30 24 C 3.7944 0.7729 3.2003 0
M  V30 25 C 2.7155 1.463 4.033 0
M  V30 26 O 1.4926 0.7279 3.9213 0
M  V30 27 C 0.4 1.4131 4.5361 0
M  V30 28 C -0.8652 0.5539 4.453 0
M  V30 29 O -0.7945 -0.6659 5.1976 0
M  V30 30 C -0.7257 -0.4799 6.6131 0
M  V30 31 C -1.06 -1.7966 7.3145 0
M  V30 32 O -2.4808 -1.9775 7.3341 0
M  V30 33 C -2.8448 -3.2251 7.9367 0
M  V30 34 C -4.3612 -3.4002 7.8656 0
M  V30 35 O -4.7302 -3.8188 6.5485 0
M  V30 36 C -6.1502 -3.854 6.3796 0
M  V30 37 C -6.4787 -4.4174 4.9984 0
M  V30 38 O -6.3089 -5.8402 5.0137 0
M  V30 39 C -6.4907 -6.4045 3.7107 0
M  V30 40 C -6.3317 -7.9251 3.7774 0
M  V30 41 O -7.5256 -8.5966 4.1992 0
M  V30 42 C -7.8218 -8.3998 5.5756 0
M  V30 43 H 6.9572 5.4445 -5.4047 0
M  V30 44 H 7.386 3.7224 -5.1138 0
M  V30 45 H 4.2091 3.4155 -9.0375 0
M  V30 46 H 3.1667 3.2381 -4.8539 0
M  V30 47 H 7.6208 5.2369 -3.0663 0
M  V30 48 H 5.8438 5.4599 -3.1149 0
M  V30 49 H 1.9676 2.6456 -9.6277 0
M  V30 50 H 0.925 2.4739 -5.4521 0
M  V30 51 H 5.6788 4.4891 -1.0199 0
M  V30 52 H 7.419 4.0734 -0.9161 0
M  V30 53 H -0.6206 1.8173 -7.0802 0
M  V30 54 H 6.6555 1.5892 -1.0553 0
M  V30 55 H 6.3217 2.4652 0.473 0
M  V30 56 H 0.0327 1.0346 -9.6719 0
M  V30 57 H -0.4253 2.7419 -9.8195 0
M  V30 58 H -2.1926 0.6928 -8.3749 0
M  V30 59 H -2.2403 0.9227 -10.1177 0
M  V30 60 H 4.8487 0.1487 -1.1612 0
M  V30 61 H 3.236 0.7427 -0.7446 0
M  V30 62 H -2.8484 3.3064 -9.8521 0
M  V30 63 H -4.0175 2.193 -9.1568 0
M  V30 64 H 4.2314 -0.6983 1.0539 0
M  V30 65 H 5.52 0.5071 1.2951 0
M  V30 66 H -3.7585 4.0455 -7.6347 0
M  V30 67 H -3.0225 2.6306 -6.8654 0
M  V30 68 H -2.0031 3.887 -7.6045 0
M  V30 69 H 4.783 1.1251 3.5135 0
M  V30 70 H 3.7327 -0.3142 3.3231 0
M  V30 71 H 3.0132 1.4724 5.0869 0
M  V30 72 H 2.5624 2.49 3.6824 0
M  V30 73 H 0.2286 2.3545 4.002 0
M  V30 74 H 0.6538 1.6397 5.5765 0
M  V30 75 H -1.7393 1.1255 4.7847 0
M  V30 76 H -1.0342 0.2649 3.4102 0
M  V30 77 H -1.4261 0.3028 6.9255 0
M  V30 78 H 0.2968 -0.1883 6.8715 0
M  V30 79 H -0.5913 -2.6377 6.7918 0
M  V30 80 H -0.7038 -1.7588 8.3498 0
M  V30 81 H -2.528 -3.2068 8.9851 0
M  V30 82 H -2.3418 -4.0449 7.4119 0
M  V30 83 H -4.6743 -4.1762 8.5724 0
M  V30 84 H -4.8643 -2.4566 8.1059 0
M  V30 85 H -6.5346 -2.8314 6.459 0
M  V30 86 H -6.5957 -4.4791 7.1618 0
M  V30 87 H -7.5227 -4.1975 4.7507 0
M  V30 88 H -5.818 -3.978 4.2426 0
M  V30 89 H -5.723 -5.9916 3.0472 0
M  V30 90 H -7.4855 -6.1408 3.3345 0
M  V30 91 H -6.1221 -8.2978 2.7695 0
M  V30 92 H -5.4974 -8.2174 4.4253 0
M  V30 93 H -8.6145 -9.0999 5.8543 0
M  V30 94 H -8.1946 -7.3871 5.7491 0
M  V30 95 H -6.9473 -8.6013 6.2016 0
M  V30 END ATOM
M  V30 BEGIN BOND
M  V30 1 2 1 2
M  V30 2 1 2 3
M  V30 3 1 2 4
M  V30 4 1 3 5
M  V30 5 2 4 6
M  V30 6 1 4 7
M  V30 7 1 5 8
M  V30 8 1 6 9
M  V30 9 2 7 10
M  V30 10 1 8 11
M  V30 11 2 9 12
M  V30 12 1 11 13
M  V30 13 1 12 14
M  V30 14 1 13 15
M  V30 15 1 14 16
M  V30 16 1 15 17
M  V30 17 1 16 18
M  V30 18 1 17 19
M  V30 19 1 18 20
M  V30 20 1 19 21
M  V30 21 1 20 22
M  V30 22 1 21 23
M  V30 23 1 23 24
M  V30 24 1 24 25
M  V30 25 1 25 26
M  V30 26 1 26 27
M  V30 27 1 27 28
M  V30 28 1 28 29
M  V30 29 1 29 30
M  V30 30 1 30 31
M  V30 31 1 31 32
M  V30 32 1 32 33
M  V30 33 1 33 34
M  V30 34 1 34 35
M  V30 35 1 35 36
M  V30 36 1 36 37
M  V30 37 1 37 38
M  V30 38 1 38 39
M  V30 39 1 39 40
M  V30 40 1 40 41
M  V30 41 1 41 42
M  V30 42 1 10 12
M  V30 43 1 5 43
M  V30 44 1 5 44
M  V30 45 1 6 45
M  V30 46 1 7 46
M  V30 47 1 8 47
M  V30 48 1 8 48
M  V30 49 1 9 49
M  V30 50 1 10 50
M  V30 51 1 13 51
M  V30 52 1 13 52
M  V30 53 1 14 53
M  V30 54 1 15 54
M  V30 55 1 15 55
M  V30 56 1 16 56
M  V30 57 1 16 57
M  V30 58 1 18 58
M  V30 59 1 18 59
M  V30 60 1 19 60
M  V30 61 1 19 61
M  V30 62 1 20 62
M  V30 63 1 20 63
M  V30 64 1 21 64
M  V30 65 1 21 65
M  V30 66 1 22 66
M  V30 67 1 22 67
M  V30 68 1 22 68
M  V30 69 1 24 69
M  V30 70 1 24 70
M  V30 71 1 25 71
M  V30 72 1 25 72
M  V30 73 1 27 73
M  V30 74 1 27 74
M  V30 75 1 28 75
M  V30 76 1 28 76
M  V30 77 1 30 77
M  V30 78 1 30 78
M  V30 79 1 31 79
M  V30 80 1 31 80
M  V30 81 1 33 81
M  V30 82 1 33 82
M  V30 83 1 34 83
M  V30 84 1 34 84
M  V30 85 1 36 85
M  V30 86 1 36 86
M  V30 87 1 37 87
M  V30 88 1 37 88
M  V30 89 1 39 89
M  V30 90 1 39 90
M  V30 91 1 40 91
M  V30 92 1 40 92
M  V30 93 1 42 93
M  V30 94 1 42 94
M  V30 95 1 42 95
M  V30 END BOND
M  V30 END CTAB
M  END
>  <level_0>
5199

>  <index>
5199

>  <NO.>
5200

>  <Name>
benzonatate

>  <SMILES>
CCCCNc1ccc(C(=O)OCCOCCOCCOCCOCCOCCOCCOCCOCCOC)cc1

>  <logBB>


>  <Class>
-1

>  <MW>
603.36

>  <nHBAcc>
12

>  <nHBDon>
1

>  <SLogP>
2.83

>  <TopoPSA>
121.4

>  <MMFF94 Energy>
224.53

$$$$
CCCN(CCC)C(=O)C(CCC(=O)OCCCN1CCN(CCOC(=O)Cc2c(C)n(C(=O)c3ccc(Cl)cc3)c3ccc(OC)cc23)CC1)NC(=O)c1ccccc1
Actelion Java MolfileCreator 2.0

  0  0  0  0  0  0              0 V3000
M  V30 BEGIN CTAB
M  V30 COUNTS 118 122 0 0 0
M  V30 BEGIN ATOM
M  V30 1 Cl -9.2576 -12.947 1.1934 0
M  V30 2 C -7.6252 -12.433 1.3638 0
M  V30 3 C -6.5872 -13.3185 1.0751 0
M  V30 4 C -7.3502 -11.1358 1.7976 0
M  V30 5 C -5.2614 -12.9013 1.2124 0
M  V30 6 C -6.0251 -10.7145 1.937 0
M  V30 7 C -4.98 -11.592 1.6225 0
M  V30 8 C -3.5672 -11.1779 1.7931 0
M  V30 9 O -2.8075 -11.9938 2.3133 0
M  V30 10 N -3.0432 -9.9074 1.4345 0
M  V30 11 C -1.9742 -9.2737 2.0786 0
M  V30 12 C -3.483 -9.0669 0.405 0
M  V30 13 C -1.8601 -7.9847 1.5585 0
M  V30 14 C -1.1373 -9.7057 3.1249 0
M  V30 15 C -2.8212 -7.8508 0.5146 0
M  V30 16 C -4.4599 -9.4787 -0.6487 0
M  V30 17 C -0.8894 -7.1047 2.0961 0
M  V30 18 C -0.1809 -8.8189 3.6309 0
M  V30 19 C -3.0205 -6.6278 -0.3281 0
M  V30 20 C -0.0535 -7.527 3.1326 0
M  V30 21 C -3.9524 -5.6423 0.3365 0
M  V30 22 O 0.9177 -6.7723 3.7339 0
M  V30 23 O -5.156 -5.5731 0.1182 0
M  V30 24 O -3.2711 -4.8591 1.2163 0
M  V30 25 C 1.0509 -5.4288 3.2867 0
M  V30 26 C -4.0761 -3.8988 1.9134 0
M  V30 27 C -3.2322 -3.204 2.9962 0
M  V30 28 N -2.0022 -2.5391 2.5179 0
M  V30 29 C -2.2842 -1.4484 1.5644 0
M  V30 30 C -1.2547 -1.9822 3.6659 0
M  V30 31 C -1.0044 -0.6906 1.1318 0
M  V30 32 C 0.0301 -1.247 3.2273 0
M  V30 33 N -0.2465 -0.1479 2.278 0
M  V30 34 C 1.0126 0.4922 1.8658 0
M  V30 35 C 0.7937 1.7897 1.0835 0
M  V30 36 C 2.1192 2.4889 0.8008 0
M  V30 37 O 1.8459 3.6822 0.0541 0
M  V30 38 C 2.9546 4.4073 -0.2666 0
M  V30 39 O 4.1027 4.0949 0.0158 0
M  V30 40 C 2.5498 5.6294 -1.0552 0
M  V30 41 C 3.6918 6.6476 -1.1321 0
M  V30 42 C 3.3704 7.8861 -1.9826 0 CFG=2
M  V30 43 N 2.1222 8.5257 -1.5763 0
M  V30 44 C 3.2368 7.5096 -3.4757 0
M  V30 45 C 2.0336 9.328 -0.4647 0
M  V30 46 O 2.1124 7.2691 -3.9347 0
M  V30 47 N 4.388 7.4042 -4.2516 0
M  V30 48 O 2.9815 9.5272 0.2867 0
M  V30 49 C 0.7037 9.9361 -0.1804 0
M  V30 50 C 5.7331 7.78 -3.8008 0
M  V30 51 C 4.2526 6.9766 -5.6473 0
M  V30 52 C 0.4087 10.2905 1.1428 0
M  V30 53 C -0.2398 10.1827 -1.1865 0
M  V30 54 C 6.0276 9.2556 -4.0764 0
M  V30 55 C 4.6445 5.5126 -5.8665 0
M  V30 56 C -0.8241 10.8628 1.461 0
M  V30 57 C -1.4725 10.7564 -0.8635 0
M  V30 58 C 7.406 9.6501 -3.5723 0
M  V30 59 C 3.734 4.5312 -5.1437 0
M  V30 60 C -1.7648 11.0919 0.4582 0
M  V30 61 H -6.8025 -14.3337 0.7516 0
M  V30 62 H -8.1617 -10.4521 2.0354 0
M  V30 63 H -4.4511 -13.5973 1.0036 0
M  V30 64 H -5.8234 -9.7076 2.2968 0
M  V30 65 H -1.22 -10.7033 3.5474 0
M  V30 66 H -4.4317 -10.5546 -0.8393 0
M  V30 67 H -4.2223 -8.9973 -1.6029 0
M  V30 68 H -5.4753 -9.1802 -0.3737 0
M  V30 69 H -0.8168 -6.1044 1.6845 0
M  V30 70 H 0.4705 -9.1484 4.4374 0
M  V30 71 H -2.0653 -6.132 -0.5378 0
M  V30 72 H -3.4389 -6.8771 -1.3089 0
M  V30 73 H 1.3559 -5.3911 2.2359 0
M  V30 74 H 1.8395 -4.9554 3.8793 0
M  V30 75 H 0.1277 -4.865 3.452 0
M  V30 76 H -4.9131 -4.4119 2.4027 0
M  V30 77 H -4.4809 -3.1719 1.201 0
M  V30 78 H -3.8705 -2.4929 3.536 0
M  V30 79 H -2.9309 -3.9808 3.711 0
M  V30 80 H -2.741 -1.8552 0.6557 0
M  V30 81 H -2.9947 -0.7324 1.999 0
M  V30 82 H -1.8864 -1.2886 4.2377 0
M  V30 83 H -0.9671 -2.7939 4.3447 0
M  V30 84 H -0.3727 -1.3681 0.5416 0
M  V30 85 H -1.3197 0.1233 0.4704 0
M  V30 86 H 0.7258 -1.9727 2.7844 0
M  V30 87 H 0.5101 -0.8407 4.126 0
M  V30 88 H 1.629 -0.2006 1.2785 0
M  V30 89 H 1.5887 0.744 2.7659 0
M  V30 90 H 0.1385 2.4695 1.643 0
M  V30 91 H 0.29 1.5983 0.1291 0
M  V30 92 H 2.615 2.7539 1.742 0
M  V30 93 H 2.7722 1.833 0.2132 0
M  V30 94 H 1.683 6.0819 -0.5609 0
M  V30 95 H 2.256 5.2935 -2.0542 0
M  V30 96 H 4.5861 6.151 -1.5265 0
M  V30 97 H 3.9446 6.965 -0.1123 0
M  V30 98 H 4.1596 8.6329 -1.8584 0
M  V30 99 H 1.3124 8.3209 -2.1519 0
M  V30 100 H 5.8399 7.5776 -2.7328 0
M  V30 101 H 6.4646 7.1445 -4.3118 0
M  V30 102 H 3.2251 7.1313 -5.9948 0
M  V30 103 H 4.8883 7.6225 -6.2635 0
M  V30 104 H 1.1401 10.1185 1.9301 0
M  V30 105 H -0.0281 9.9614 -2.2282 0
M  V30 106 H 5.9666 9.457 -5.152 0
M  V30 107 H 5.2723 9.8889 -3.597 0
M  V30 108 H 4.6042 5.3 -6.9413 0
M  V30 109 H 5.6785 5.3407 -5.548 0
M  V30 110 H -1.0474 11.132 2.4904 0
M  V30 111 H -2.2031 10.9497 -1.6455 0
M  V30 112 H 7.5987 10.7066 -3.7831 0
M  V30 113 H 7.4857 9.4996 -2.491 0
M  V30 114 H 8.1863 9.0581 -4.0608 0
M  V30 115 H 4.0078 3.5037 -5.4031 0
M  V30 116 H 3.8206 4.6335 -4.0579 0
M  V30 117 H 2.6874 4.6839 -5.4252 0
M  V30 118 H -2.7239 11.5404 0.7061 0
M  V30 END ATOM
M  V30 BEGIN BOND
M  V30 1 1 1 2
M  V30 2 2 2 3
M  V30 3 1 2 4
M  V30 4 1 3 5
M  V30 5 2 4 6
M  V30 6 2 5 7
M  V30 7 1 7 8
M  V30 8 2 8 9
M  V30 9 1 8 10
M  V30 10 1 10 11
M  V30 11 1 10 12
M  V30 12 2 11 13
M  V30 13 1 11 14
M  V30 14 2 12 15
M  V30 15 1 12 16
M  V30 16 1 13 17
M  V30 17 2 14 18
M  V30 18 1 15 19
M  V30 19 2 17 20
M  V30 20 1 19 21
M  V30 21 1 20 22
M  V30 22 2 21 23
M  V30 23 1 21 24
M  V30 24 1 22 25
M  V30 25 1 24 26
M  V30 26 1 26 27
M  V30 27 1 27 28
M  V30 28 1 28 29
M  V30 29 1 28 30
M  V30 30 1 29 31
M  V30 31 1 30 32
M  V30 32 1 31 33
M  V30 33 1 33 34
M  V30 34 1 34 35
M  V30 35 1 35 36
M  V30 36 1 36 37
M  V30 37 1 37 38
M  V30 38 2 38 39
M  V30 39 1 38 40
M  V30 40 1 40 41
M  V30 41 1 41 42
M  V30 42 1 42 43
M  V30 43 1 42 44
M  V30 44 1 43 45
M  V30 45 2 44 46
M  V30 46 1 44 47
M  V30 47 2 45 48
M  V30 48 1 45 49
M  V30 49 1 47 50
M  V30 50 1 47 51
M  V30 51 2 49 52
M  V30 52 1 49 53
M  V30 53 1 50 54
M  V30 54 1 51 55
M  V30 55 1 52 56
M  V30 56 2 53 57
M  V30 57 1 54 58
M  V30 58 1 55 59
M  V30 59 2 56 60
M  V30 60 1 6 7
M  V30 61 1 13 15
M  V30 62 1 18 20
M  V30 63 1 32 33
M  V30 64 1 57 60
M  V30 65 1 3 61
M  V30 66 1 4 62
M  V30 67 1 5 63
M  V30 68 1 6 64
M  V30 69 1 14 65
M  V30 70 1 16 66
M  V30 71 1 16 67
M  V30 72 1 16 68
M  V30 73 1 17 69
M  V30 74 1 18 70
M  V30 75 1 19 71
M  V30 76 1 19 72
M  V30 77 1 25 73
M  V30 78 1 25 74
M  V30 79 1 25 75
M  V30 80 1 26 76
M  V30 81 1 26 77
M  V30 82 1 27 78
M  V30 83 1 27 79
M  V30 84 1 29 80
M  V30 85 1 29 81
M  V30 86 1 30 82
M  V30 87 1 30 83
M  V30 88 1 31 84
M  V30 89 1 31 85
M  V30 90 1 32 86
M  V30 91 1 32 87
M  V30 92 1 34 88
M  V30 93 1 34 89
M  V30 94 1 35 90
M  V30 95 1 35 91
M  V30 96 1 36 92
M  V30 97 1 36 93
M  V30 98 1 40 94
M  V30 99 1 40 95
M  V30 100 1 41 96
M  V30 101 1 41 97
M  V30 102 1 42 98
M  V30 103 1 43 99
M  V30 104 1 50 100
M  V30 105 1 50 101
M  V30 106 1 51 102
M  V30 107 1 51 103
M  V30 108 1 52 104
M  V30 109 1 53 105
M  V30 110 1 54 106
M  V30 111 1 54 107
M  V30 112 1 55 108
M  V30 113 1 55 109
M  V30 114 1 56 110
M  V30 115 1 57 111
M  V30 116 1 58 112
M  V30 117 1 58 113
M  V30 118 1 58 114
M  V30 119 1 59 115
M  V30 120 1 59 116
M  V30 121 1 59 117
M  V30 122 1 60 118
M  V30 END BOND
M  V30 BEGIN COLLECTION
M  V30 MDLV30/STERAC1 ATOMS=(1 42)
M  V30 END COLLECTION
M  V30 END CTAB
M  END
>  <level_0>
5202

>  <index>
5202

>  <NO.>
5203

>  <Name>
proglumetacin

>  <SMILES>
CCCN(CCC)C(=O)C(CCC(=O)OCCCN1CCN(CCOC(=O)Cc2c(C)n(C(=O)c3ccc(Cl)cc3)c3ccc(OC)cc23)CC1)NC(=O)c1ccccc1

>  <logBB>


>  <Class>
-1

>  <MW>
843.4

>  <nHBAcc>
10

>  <nHBDon>
1

>  <SLogP>
6.16

>  <TopoPSA>
139.72

>  <MMFF94 Energy>
202.8

$$$$
CCCn1c(=O)[nH]c(=O)c2[nH]cnc21
Actelion Java MolfileCreator 2.0

  0  0  0  0  0  0              0 V3000
M  V30 BEGIN CTAB
M  V30 COUNTS 24 25 0 0 0
M  V30 BEGIN ATOM
M  V30 1 O -1.1018 -2.2835 -1.0231 0
M  V30 2 C -0.2862 -1.3614 -1.0492 0
M  V30 3 N 0.1786 -0.6997 0.0868 0
M  V30 4 N 0.2052 -0.941 -2.2736 0
M  V30 5 C 1.0892 0.324 -0.075 0
M  V30 6 C -0.3011 -1.0801 1.4106 0
M  V30 7 C 1.1086 0.0706 -2.5072 0
M  V30 8 N 1.6551 1.0789 0.9069 0
M  V30 9 C 1.5338 0.6941 -1.3091 0
M  V30 10 C -1.3597 -0.125 1.9699 0
M  V30 11 O 1.4904 0.3833 -3.628 0
M  V30 12 C 2.4475 1.9154 0.2651 0
M  V30 13 N 2.4065 1.7182 -1.0917 0
M  V30 14 C -2.6562 -0.1354 1.1735 0
M  V30 15 H -0.145 -1.4329 -3.0802 0
M  V30 16 H -0.709 -2.0971 1.3765 0
M  V30 17 H 0.5607 -1.1125 2.0885 0
M  V30 18 H -1.5825 -0.4191 3.0024 0
M  V30 19 H -0.9706 0.8987 2.0076 0
M  V30 20 H 3.0682 2.6764 0.7206 0
M  V30 21 H 2.922 2.2293 -1.7971 0
M  V30 22 H -3.4002 0.5049 1.6583 0
M  V30 23 H -2.5039 0.2419 0.1579 0
M  V30 24 H -3.0704 -1.1466 1.1097 0
M  V30 END ATOM
M  V30 BEGIN BOND
M  V30 1 2 1 2
M  V30 2 1 2 3
M  V30 3 1 2 4
M  V30 4 1 3 5
M  V30 5 1 3 6
M  V30 6 1 4 7
M  V30 7 1 5 8
M  V30 8 2 5 9
M  V30 9 1 6 10
M  V30 10 2 7 11
M  V30 11 2 8 12
M  V30 12 1 9 13
M  V30 13 1 10 14
M  V30 14 1 7 9
M  V30 15 1 12 13
M  V30 16 1 4 15
M  V30 17 1 6 16
M  V30 18 1 6 17
M  V30 19 1 10 18
M  V30 20 1 10 19
M  V30 21 1 12 20
M  V30 22 1 13 21
M  V30 23 1 14 22
M  V30 24 1 14 23
M  V30 25 1 14 24
M  V30 END BOND
M  V30 END CTAB
M  END
>  <level_0>
5207

>  <index>
5207

>  <NO.>
5208

>  <Name>
enprofylline

>  <SMILES>
CCCn1c(=O)[nH]c(=O)c2[nH]cnc21

>  <logBB>


>  <Class>
-1

>  <MW>
194.08

>  <nHBAcc>
3

>  <nHBDon>
2

>  <SLogP>
-0.18

>  <TopoPSA>
83.54

>  <MMFF94 Energy>
-144.21

$$$$
CCN(CC)CCCC(C)Nc1c2ccc(Cl)cc2nc2ccc(OC)cc12
Actelion Java MolfileCreator 2.0

  0  0  0  0  0  0              0 V3000
M  V30 BEGIN CTAB
M  V30 COUNTS 58 60 0 0 0
M  V30 BEGIN ATOM
M  V30 1 Cl 8.2633 -0.713 -0.9507 0
M  V30 2 C 6.5614 -0.5057 -0.8093 0
M  V30 3 C 5.9762 0.7037 -1.1717 0
M  V30 4 C 5.7775 -1.5468 -0.3378 0
M  V30 5 C 4.6073 0.9034 -1.0708 0
M  V30 6 C 4.3996 -1.364 -0.2296 0
M  V30 7 N 4.1298 2.0931 -1.4522 0
M  V30 8 C 3.7865 -0.1362 -0.5884 0
M  V30 9 C 2.8166 2.3369 -1.3607 0
M  V30 10 C 2.3872 0.1149 -0.5072 0
M  V30 11 C 1.89 1.3917 -0.8877 0
M  V30 12 C 2.3639 3.5918 -1.7454 0
M  V30 13 N 1.5138 -0.9167 -0.1129 0
M  V30 14 C 0.5327 1.785 -0.7814 0
M  V30 15 C 1.0164 3.9583 -1.6602 0
M  V30 16 C 0.6323 -1.5448 -1.1028 0 CFG=2
M  V30 17 C 0.0908 3.052 -1.1664 0
M  V30 18 C -0.4837 -2.3136 -0.3683 0
M  V30 19 C 1.4333 -2.5171 -1.9724 0
M  V30 20 O -1.2481 3.2686 -1.0064 0
M  V30 21 C -1.4668 -1.3828 0.3514 0
M  V30 22 C -1.7408 4.5524 -1.3685 0
M  V30 23 C -2.5602 -2.1792 1.0771 0
M  V30 24 N -3.6146 -1.3225 1.6514 0
M  V30 25 C -3.1029 -0.4447 2.719 0
M  V30 26 C -4.7424 -2.1497 2.1126 0
M  V30 27 C -3.1141 1.0042 2.2488 0
M  V30 28 C -6.0087 -1.3272 2.3356 0
M  V30 29 H 6.5962 1.5153 -1.545 0
M  V30 30 H 6.2244 -2.4964 -0.0566 0
M  V30 31 H 3.8026 -2.1956 0.1338 0
M  V30 32 H 3.0863 4.315 -2.1184 0
M  V30 33 H 1.836 -1.5081 0.6443 0
M  V30 34 H -0.1972 1.0948 -0.3694 0
M  V30 35 H 0.7365 4.9569 -1.9769 0
M  V30 36 H 0.1708 -0.7978 -1.7584 0
M  V30 37 H -0.0451 -3.0113 0.3569 0
M  V30 38 H -1.0429 -2.9182 -1.0937 0
M  V30 39 H 2.2082 -1.9933 -2.5418 0
M  V30 40 H 1.9256 -3.2844 -1.3647 0
M  V30 41 H 0.7812 -3.0221 -2.6929 0
M  V30 42 H -0.9175 -0.7619 1.0667 0
M  V30 43 H -1.9293 -0.7118 -0.3829 0
M  V30 44 H -1.284 5.3377 -0.7571 0
M  V30 45 H -2.8179 4.564 -1.1751 0
M  V30 46 H -1.5918 4.7453 -2.436 0
M  V30 47 H -3.0143 -2.8526 0.3386 0
M  V30 48 H -2.1119 -2.8139 1.8527 0
M  V30 49 H -3.708 -0.5101 3.6315 0
M  V30 50 H -2.0903 -0.7243 3.0347 0
M  V30 51 H -4.9897 -2.8968 1.3477 0
M  V30 52 H -4.4819 -2.7029 3.0236 0
M  V30 53 H -2.7441 1.6592 3.0444 0
M  V30 54 H -4.1287 1.3283 1.9932 0
M  V30 55 H -2.4772 1.1527 1.3715 0
M  V30 56 H -6.8426 -1.9898 2.5904 0
M  V30 57 H -6.2836 -0.7776 1.429 0
M  V30 58 H -5.8986 -0.6077 3.1523 0
M  V30 END ATOM
M  V30 BEGIN BOND
M  V30 1 1 1 2
M  V30 2 2 2 3
M  V30 3 1 2 4
M  V30 4 1 3 5
M  V30 5 2 4 6
M  V30 6 2 5 7
M  V30 7 1 5 8
M  V30 8 1 7 9
M  V30 9 2 8 10
M  V30 10 1 9 11
M  V30 11 2 9 12
M  V30 12 1 10 13
M  V30 13 2 11 14
M  V30 14 1 12 15
M  V30 15 1 13 16
M  V30 16 1 14 17
M  V30 17 1 16 18
M  V30 18 1 16 19
M  V30 19 1 17 20
M  V30 20 1 18 21
M  V30 21 1 20 22
M  V30 22 1 21 23
M  V30 23 1 23 24
M  V30 24 1 24 25
M  V30 25 1 24 26
M  V30 26 1 25 27
M  V30 27 1 26 28
M  V30 28 1 6 8
M  V30 29 1 10 11
M  V30 30 2 15 17
M  V30 31 1 3 29
M  V30 32 1 4 30
M  V30 33 1 6 31
M  V30 34 1 12 32
M  V30 35 1 13 33
M  V30 36 1 14 34
M  V30 37 1 15 35
M  V30 38 1 16 36
M  V30 39 1 18 37
M  V30 40 1 18 38
M  V30 41 1 19 39
M  V30 42 1 19 40
M  V30 43 1 19 41
M  V30 44 1 21 42
M  V30 45 1 21 43
M  V30 46 1 22 44
M  V30 47 1 22 45
M  V30 48 1 22 46
M  V30 49 1 23 47
M  V30 50 1 23 48
M  V30 51 1 25 49
M  V30 52 1 25 50
M  V30 53 1 26 51
M  V30 54 1 26 52
M  V30 55 1 27 53
M  V30 56 1 27 54
M  V30 57 1 27 55
M  V30 58 1 28 56
M  V30 59 1 28 57
M  V30 60 1 28 58
M  V30 END BOND
M  V30 BEGIN COLLECTION
M  V30 MDLV30/STERAC1 ATOMS=(1 16)
M  V30 END COLLECTION
M  V30 END CTAB
M  END
>  <level_0>
5210

>  <index>
5210

>  <NO.>
5211

>  <Name>
quinacrine

>  <SMILES>
CCN(CC)CCCC(C)Nc1c2ccc(Cl)cc2nc2ccc(OC)cc12

>  <logBB>


>  <Class>
-1

>  <MW>
399.21

>  <nHBAcc>
4

>  <nHBDon>
1

>  <SLogP>
5.97

>  <TopoPSA>
37.39

>  <MMFF94 Energy>
68.55

$$$$
CCN(CC)Cc1cc(Nc2ccnc3cc(Cl)ccc23)ccc1O
Actelion Java MolfileCreator 2.0

  0  0  0  0  0  0              0 V3000
M  V30 BEGIN CTAB
M  V30 COUNTS 47 49 0 0 0
M  V30 BEGIN ATOM
M  V30 1 Cl 6.3027 -3.8259 -4.0654 0
M  V30 2 C 5.2116 -3.0416 -2.9908 0
M  V30 3 C 5.0513 -1.6601 -3.0507 0
M  V30 4 C 4.4906 -3.792 -2.0735 0
M  V30 5 C 4.1787 -0.9977 -2.2005 0
M  V30 6 C 3.6095 -3.1463 -1.2069 0
M  V30 7 N 4.0686 0.3321 -2.3322 0
M  V30 8 C 3.4442 -1.74 -1.2446 0
M  V30 9 C 3.2142 0.9818 -1.5188 0
M  V30 10 C 2.5675 -1.0219 -0.3878 0
M  V30 11 C 2.4515 0.3597 -0.5528 0
M  V30 12 N 1.8028 -1.6901 0.5961 0
M  V30 13 C 0.5191 -1.4241 1.1037 0
M  V30 14 C -0.4575 -0.7451 0.3633 0
M  V30 15 C 0.2095 -1.8064 2.4143 0
M  V30 16 C -1.7222 -0.4434 0.9028 0
M  V30 17 C -1.0414 -1.5244 2.9684 0
M  V30 18 C -1.9967 -0.848 2.2126 0
M  V30 19 C -2.7439 0.3028 0.0685 0
M  V30 20 O -3.2281 -0.5947 2.7472 0
M  V30 21 N -2.8049 1.7515 0.3732 0
M  V30 22 C -4.1204 2.3005 -3.0E-4 0
M  V30 23 C -1.7116 2.4766 -0.2958 0
M  V30 24 C -5.1998 1.9484 1.0201 0
M  V30 25 C -1.4552 3.8471 0.3256 0
M  V30 26 H 5.6133 -1.0793 -3.778 0
M  V30 27 H 4.6024 -4.872 -2.0301 0
M  V30 28 H 3.0382 -3.7555 -0.5114 0
M  V30 29 H 3.1621 2.0571 -1.6647 0
M  V30 30 H 1.8055 0.9533 0.0847 0
M  V30 31 H 2.2901 -2.4475 1.0594 0
M  V30 32 H -0.2456 -0.4586 -0.664 0
M  V30 33 H 0.9476 -2.3212 3.0239 0
M  V30 34 H -1.2527 -1.8416 3.9847 0
M  V30 35 H -3.7087 -0.1873 0.2454 0
M  V30 36 H -2.5505 0.1426 -1.0014 0
M  V30 37 H -3.1949 -0.7609 3.7026 0
M  V30 38 H -4.0877 3.3944 -0.0387 0
M  V30 39 H -4.4196 1.9663 -1.0018 0
M  V30 40 H -0.7704 1.9267 -0.197 0
M  V30 41 H -1.9034 2.5784 -1.3713 0
M  V30 42 H -6.1335 2.4605 0.7641 0
M  V30 43 H -4.9082 2.2699 2.0257 0
M  V30 44 H -5.4132 0.8766 1.0502 0
M  V30 45 H -0.5589 4.2933 -0.1182 0
M  V30 46 H -1.286 3.7634 1.4045 0
M  V30 47 H -2.2817 4.5432 0.1587 0
M  V30 END ATOM
M  V30 BEGIN BOND
M  V30 1 1 1 2
M  V30 2 2 2 3
M  V30 3 1 2 4
M  V30 4 1 3 5
M  V30 5 2 4 6
M  V30 6 2 5 7
M  V30 7 1 5 8
M  V30 8 1 7 9
M  V30 9 2 8 10
M  V30 10 2 9 11
M  V30 11 1 10 12
M  V30 12 1 12 13
M  V30 13 2 13 14
M  V30 14 1 13 15
M  V30 15 1 14 16
M  V30 16 2 15 17
M  V30 17 2 16 18
M  V30 18 1 16 19
M  V30 19 1 18 20
M  V30 20 1 19 21
M  V30 21 1 21 22
M  V30 22 1 21 23
M  V30 23 1 22 24
M  V30 24 1 23 25
M  V30 25 1 6 8
M  V30 26 1 10 11
M  V30 27 1 17 18
M  V30 28 1 3 26
M  V30 29 1 4 27
M  V30 30 1 6 28
M  V30 31 1 9 29
M  V30 32 1 11 30
M  V30 33 1 12 31
M  V30 34 1 14 32
M  V30 35 1 15 33
M  V30 36 1 17 34
M  V30 37 1 19 35
M  V30 38 1 19 36
M  V30 39 1 20 37
M  V30 40 1 22 38
M  V30 41 1 22 39
M  V30 42 1 23 40
M  V30 43 1 23 41
M  V30 44 1 24 42
M  V30 45 1 24 43
M  V30 46 1 24 44
M  V30 47 1 25 45
M  V30 48 1 25 46
M  V30 49 1 25 47
M  V30 END BOND
M  V30 END CTAB
M  END
>  <level_0>
5215

>  <index>
5215

>  <NO.>
5216

>  <Name>
amodiaquine

>  <SMILES>
CCN(CC)Cc1cc(Nc2ccnc3cc(Cl)ccc23)ccc1O

>  <logBB>


>  <Class>
-1

>  <MW>
355.15

>  <nHBAcc>
4

>  <nHBDon>
2

>  <SLogP>
5.18

>  <TopoPSA>
48.39

>  <MMFF94 Energy>
38.023

$$$$
CCOC(=O)C=C(C)C=CC=C(C)C=Cc1c(C)cc(OC)c(C)c1C
Actelion Java MolfileCreator 2.0

  0  0  0  0  0  0              0 V3000
M  V30 BEGIN CTAB
M  V30 COUNTS 56 56 0 0 0
M  V30 BEGIN ATOM
M  V30 1 O 6.0152 -2.8869 4.6065 0
M  V30 2 C 5.8751 -2.2497 3.5739 0
M  V30 3 O 6.8665 -1.7772 2.7826 0
M  V30 4 C 4.5515 -1.8038 3.0938 0
M  V30 5 C 8.1837 -2.1252 3.2229 0
M  V30 6 C 4.1138 -1.7474 1.819 0
M  V30 7 C 9.1779 -1.5667 2.2237 0
M  V30 8 C 2.7649 -1.2294 1.5724 0
M  V30 9 C 4.9135 -2.2248 0.6319 0
M  V30 10 C 2.1986 -1.0112 0.3728 0
M  V30 11 C 0.8523 -0.4893 0.2302 0
M  V30 12 C 0.1864 -0.23 -0.9156 0
M  V30 13 C -1.1768 0.2983 -0.8173 0
M  V30 14 C 0.7421 -0.445 -2.302 0
M  V30 15 C -1.9852 0.615 -1.8421 0
M  V30 16 C -3.3412 1.1418 -1.6108 0
M  V30 17 C -4.432 0.2634 -1.3985 0
M  V30 18 C -3.5399 2.5371 -1.5862 0
M  V30 19 C -5.7118 0.7987 -1.0934 0
M  V30 20 C -4.2283 -1.2346 -1.4427 0
M  V30 21 C -4.8225 3.0459 -1.3312 0
M  V30 22 C -2.4055 3.5037 -1.8106 0
M  V30 23 C -5.9039 2.1955 -1.0891 0
M  V30 24 C -6.8811 -0.1187 -0.8189 0
M  V30 25 O -7.1817 2.6279 -0.8391 0
M  V30 26 C -7.4219 4.0287 -0.8424 0
M  V30 27 H 3.9024 -1.5244 3.919 0
M  V30 28 H 8.2828 -3.2153 3.273 0
M  V30 29 H 8.3689 -1.6914 4.212 0
M  V30 30 H 10.2033 -1.8075 2.5172 0
M  V30 31 H 8.9904 -1.9745 1.2249 0
M  V30 32 H 9.0778 -0.4789 2.1472 0
M  V30 33 H 2.1823 -0.9921 2.4634 0
M  V30 34 H 5.7825 -2.8258 0.9118 0
M  V30 35 H 5.2638 -1.3742 0.038 0
M  V30 36 H 4.3084 -2.8762 -0.0089 0
M  V30 37 H 2.7548 -1.2203 -0.533 0
M  V30 38 H 0.3453 -0.2942 1.1763 0
M  V30 39 H -1.5625 0.4448 0.1928 0
M  V30 40 H 0.1217 -1.1575 -2.857 0
M  V30 41 H 0.7703 0.501 -2.8542 0
M  V30 42 H 1.7585 -0.8429 -2.3136 0
M  V30 43 H -1.6995 0.5103 -2.883 0
M  V30 44 H -5.1066 -1.7443 -1.8513 0
M  V30 45 H -3.4006 -1.5203 -2.0989 0
M  V30 46 H -4.0289 -1.6134 -0.4355 0
M  V30 47 H -4.9507 4.1235 -1.3202 0
M  V30 48 H -1.9008 3.2919 -2.7587 0
M  V30 49 H -1.6856 3.4421 -0.9882 0
M  V30 50 H -2.7625 4.538 -1.8612 0
M  V30 51 H -7.289 -0.4942 -1.7625 0
M  V30 52 H -6.5766 -0.9628 -0.1917 0
M  V30 53 H -7.6853 0.3803 -0.2694 0
M  V30 54 H -6.8547 4.5284 -0.0504 0
M  V30 55 H -8.4854 4.1853 -0.6374 0
M  V30 56 H -7.2057 4.4648 -1.8232 0
M  V30 END ATOM
M  V30 BEGIN BOND
M  V30 1 2 1 2
M  V30 2 1 2 3
M  V30 3 1 2 4
M  V30 4 1 3 5
M  V30 5 2 4 6
M  V30 6 1 5 7
M  V30 7 1 6 8
M  V30 8 1 6 9
M  V30 9 2 8 10
M  V30 10 1 10 11
M  V30 11 2 11 12
M  V30 12 1 12 13
M  V30 13 1 12 14
M  V30 14 2 13 15
M  V30 15 1 15 16
M  V30 16 2 16 17
M  V30 17 1 16 18
M  V30 18 1 17 19
M  V30 19 1 17 20
M  V30 20 2 18 21
M  V30 21 1 18 22
M  V30 22 2 19 23
M  V30 23 1 19 24
M  V30 24 1 23 25
M  V30 25 1 25 26
M  V30 26 1 21 23
M  V30 27 1 4 27
M  V30 28 1 5 28
M  V30 29 1 5 29
M  V30 30 1 7 30
M  V30 31 1 7 31
M  V30 32 1 7 32
M  V30 33 1 8 33
M  V30 34 1 9 34
M  V30 35 1 9 35
M  V30 36 1 9 36
M  V30 37 1 10 37
M  V30 38 1 11 38
M  V30 39 1 13 39
M  V30 40 1 14 40
M  V30 41 1 14 41
M  V30 42 1 14 42
M  V30 43 1 15 43
M  V30 44 1 20 44
M  V30 45 1 20 45
M  V30 46 1 20 46
M  V30 47 1 21 47
M  V30 48 1 22 48
M  V30 49 1 22 49
M  V30 50 1 22 50
M  V30 51 1 24 51
M  V30 52 1 24 52
M  V30 53 1 24 53
M  V30 54 1 26 54
M  V30 55 1 26 55
M  V30 56 1 26 56
M  V30 END BOND
M  V30 END CTAB
M  END
>  <level_0>
5230

>  <index>
5230

>  <NO.>
5231

>  <Name>
9-(4-methoxy-2,3,6-trimethylphenyl)-3,7-dimethylnona-2,4,6,8-tetraenoic acid ethyl ester

>  <SMILES>
CCOC(=O)C=C(C)C=CC=C(C)C=Cc1c(C)cc(OC)c(C)c1C

>  <logBB>


>  <Class>
-1

>  <MW>
354.22

>  <nHBAcc>
3

>  <nHBDon>
0

>  <SLogP>
5.65

>  <TopoPSA>
35.53

>  <MMFF94 Energy>
51.211

$$$$
CCOC(=O)c1c(CSc2ccccc2)n(C)c2cc(Br)c(O)c(CN(C)C)c12
Actelion Java MolfileCreator 2.0

  0  0  0  0  0  0              0 V3000
M  V30 BEGIN CTAB
M  V30 COUNTS 54 56 0 0 0
M  V30 BEGIN ATOM
M  V30 1 Br 6.2332 -2.5868 1.1311 0
M  V30 2 C 4.632 -1.6996 0.6285 0
M  V30 3 C 4.5629 -0.3094 0.5982 0
M  V30 4 C 3.5246 -2.4712 0.2989 0
M  V30 5 O 5.674 0.4359 0.9187 0
M  V30 6 C 3.3774 0.3781 0.2368 0
M  V30 7 C 2.3469 -1.8103 -0.0884 0
M  V30 8 C 2.2461 -0.413 -0.151 0
M  V30 9 C 3.3739 1.8978 0.3313 0
M  V30 10 N 1.1224 -2.3452 -0.4485 0
M  V30 11 C 0.9044 -0.1295 -0.6013 0
M  V30 12 N 3.2093 2.4034 1.7114 0
M  V30 13 C 0.2326 -1.343 -0.7554 0
M  V30 14 C 0.8583 -3.7715 -0.4606 0
M  V30 15 C 0.3015 1.1653 -0.8897 0
M  V30 16 C 1.8628 2.1747 2.2312 0
M  V30 17 C 3.5271 3.8309 1.7559 0
M  V30 18 C -1.1775 -1.5871 -1.2072 0
M  V30 19 O 0.7749 1.9735 -1.6784 0
M  V30 20 O -0.8622 1.353 -0.2025 0
M  V30 21 S -2.24 -1.9973 0.2174 0
M  V30 22 C -1.504 2.605 -0.4621 0
M  V30 23 C -3.8467 -1.8899 -0.5483 0
M  V30 24 C -2.7711 2.667 0.3676 0
M  V30 25 C -4.1715 -2.6232 -1.694 0
M  V30 26 C -4.8184 -1.0714 0.0364 0
M  V30 27 C -5.4437 -2.5179 -2.2617 0
M  V30 28 C -6.0897 -0.9657 -0.5314 0
M  V30 29 C -6.4008 -1.6866 -1.6823 0
M  V30 30 H 3.5724 -3.5545 0.3388 0
M  V30 31 H 6.3571 -0.1779 1.2401 0
M  V30 32 H 2.6201 2.3349 -0.3226 0
M  V30 33 H 4.3281 2.2515 -0.083 0
M  V30 34 H 1.6508 -4.2675 -1.0275 0
M  V30 35 H -0.097 -3.9898 -0.937 0
M  V30 36 H 0.8462 -4.1228 0.5744 0
M  V30 37 H 1.6322 1.1067 2.2918 0
M  V30 38 H 1.0956 2.6665 1.6237 0
M  V30 39 H 1.7791 2.5577 3.2549 0
M  V30 40 H 2.86 4.4231 1.1189 0
M  V30 41 H 4.5596 4.0078 1.4346 0
M  V30 42 H 3.4525 4.2113 2.7809 0
M  V30 43 H -1.2066 -2.3943 -1.9456 0
M  V30 44 H -1.5762 -0.6975 -1.706 0
M  V30 45 H -1.7554 2.6793 -1.5259 0
M  V30 46 H -0.8376 3.4282 -0.181 0
M  V30 47 H -3.2939 3.6148 0.2117 0
M  V30 48 H -3.4443 1.8455 0.1032 0
M  V30 49 H -2.5408 2.5602 1.4328 0
M  V30 50 H -3.4491 -3.2939 -2.15 0
M  V30 51 H -4.5917 -0.5065 0.938 0
M  V30 52 H -5.6903 -3.0904 -3.1522 0
M  V30 53 H -6.837 -0.3236 -0.072 0
M  V30 54 H -7.3915 -1.607 -2.1228 0
M  V30 END ATOM
M  V30 BEGIN BOND
M  V30 1 1 1 2
M  V30 2 2 2 3
M  V30 3 1 2 4
M  V30 4 1 3 5
M  V30 5 1 3 6
M  V30 6 2 4 7
M  V30 7 2 6 8
M  V30 8 1 6 9
M  V30 9 1 7 10
M  V30 10 1 8 11
M  V30 11 1 9 12
M  V30 12 1 10 13
M  V30 13 1 10 14
M  V30 14 1 11 15
M  V30 15 1 12 16
M  V30 16 1 12 17
M  V30 17 1 13 18
M  V30 18 2 15 19
M  V30 19 1 15 20
M  V30 20 1 18 21
M  V30 21 1 20 22
M  V30 22 1 21 23
M  V30 23 1 22 24
M  V30 24 2 23 25
M  V30 25 1 23 26
M  V30 26 1 25 27
M  V30 27 2 26 28
M  V30 28 2 27 29
M  V30 29 1 7 8
M  V30 30 2 11 13
M  V30 31 1 28 29
M  V30 32 1 4 30
M  V30 33 1 5 31
M  V30 34 1 9 32
M  V30 35 1 9 33
M  V30 36 1 14 34
M  V30 37 1 14 35
M  V30 38 1 14 36
M  V30 39 1 16 37
M  V30 40 1 16 38
M  V30 41 1 16 39
M  V30 42 1 17 40
M  V30 43 1 17 41
M  V30 44 1 17 42
M  V30 45 1 18 43
M  V30 46 1 18 44
M  V30 47 1 22 45
M  V30 48 1 22 46
M  V30 49 1 24 47
M  V30 50 1 24 48
M  V30 51 1 24 49
M  V30 52 1 25 50
M  V30 53 1 26 51
M  V30 54 1 27 52
M  V30 55 1 28 53
M  V30 56 1 29 54
M  V30 END BOND
M  V30 END CTAB
M  END
>  <level_0>
5234

>  <index>
5234

>  <NO.>
5235

>  <Name>
arbidol

>  <SMILES>
CCOC(=O)c1c(CSc2ccccc2)n(C)c2cc(Br)c(O)c(CN(C)C)c12

>  <logBB>


>  <Class>
-1

>  <MW>
476.08

>  <nHBAcc>
5

>  <nHBDon>
1

>  <SLogP>
5.18

>  <TopoPSA>
54.7

>  <MMFF94 Energy>
61.047

$$$$
CCOc1cc(CC(=O)NC(CC(C)C)c2ccccc2N2CCCCC2)ccc1C(=O)O
Actelion Java MolfileCreator 2.0

  0  0  0  0  0  0              0 V3000
M  V30 BEGIN CTAB
M  V30 COUNTS 69 71 0 0 0
M  V30 BEGIN ATOM
M  V30 1 O 1.8936 -2.5255 5.4518 0
M  V30 2 C 2.5047 -1.4765 5.3803 0
M  V30 3 O 3.5505 -1.2389 6.1977 0
M  V30 4 C 2.2555 -0.3384 4.461 0
M  V30 5 C 0.9964 -0.1431 3.8844 0
M  V30 6 C 3.2992 0.5373 4.1247 0
M  V30 7 O -0.0696 -0.9456 4.1978 0
M  V30 8 C 0.7724 0.935 3.0211 0
M  V30 9 C 3.0839 1.5916 3.2312 0
M  V30 10 C -0.311 -1.8829 3.139 0
M  V30 11 C 1.8166 1.8033 2.676 0
M  V30 12 C -1.3582 -2.8723 3.614 0
M  V30 13 C 1.5922 2.9049 1.6675 0
M  V30 14 C 1.6813 2.3722 0.246 0
M  V30 15 O 2.7538 2.2882 -0.3437 0
M  V30 16 N 0.4681 1.9719 -0.2669 0
M  V30 17 C 0.2575 1.1797 -1.4766 0 CFG=2
M  V30 18 C 0.3632 -0.3102 -1.1487 0
M  V30 19 C 1.0916 1.5837 -2.7119 0
M  V30 20 C -0.7762 -1.1503 -1.1112 0
M  V30 21 C 1.6235 -0.8483 -0.8084 0
M  V30 22 C 0.9245 3.0523 -3.1585 0
M  V30 23 N -2.0377 -0.6851 -1.4605 0
M  V30 24 C -0.601 -2.4915 -0.7253 0
M  V30 25 C 1.7672 -2.1818 -0.4333 0
M  V30 26 C 1.8884 3.3515 -4.3105 0
M  V30 27 C -0.5067 3.3745 -3.5914 0
M  V30 28 C -3.1788 -0.8711 -0.5658 0
M  V30 29 C -2.3237 -0.477 -2.8812 0
M  V30 30 C 0.6528 -3.005 -0.3909 0
M  V30 31 C -4.1232 -1.9551 -1.0853 0
M  V30 32 C -3.2162 -1.5993 -3.4068 0
M  V30 33 C -4.477 -1.7415 -2.5559 0
M  V30 34 H 3.5888 -2.0444 6.7546 0
M  V30 35 H 4.2942 0.3953 4.5407 0
M  V30 36 H -0.2231 1.0797 2.6096 0
M  V30 37 H 3.9176 2.2384 2.9627 0
M  V30 38 H 0.6079 -2.4218 2.8785 0
M  V30 39 H -0.6879 -1.3581 2.254 0
M  V30 40 H -1.5822 -3.606 2.8346 0
M  V30 41 H -1.012 -3.4003 4.5085 0
M  V30 42 H -2.2829 -2.3533 3.8872 0
M  V30 43 H 0.6173 3.3768 1.8393 0
M  V30 44 H 2.339 3.6989 1.7868 0
M  V30 45 H -0.344 2.0437 0.3286 0
M  V30 46 H -0.7832 1.3981 -1.7262 0
M  V30 47 H 0.8134 0.9284 -3.5493 0
M  V30 48 H 2.1557 1.3883 -2.5366 0
M  V30 49 H 2.5104 -0.2171 -0.821 0
M  V30 50 H 1.1885 3.7172 -2.3279 0
M  V30 51 H -1.45 -3.1672 -0.7027 0
M  V30 52 H 2.748 -2.5698 -0.1725 0
M  V30 53 H 2.9249 3.1692 -4.0078 0
M  V30 54 H 1.6732 2.7241 -5.1821 0
M  V30 55 H 1.8125 4.3993 -4.6198 0
M  V30 56 H -1.2018 3.3172 -2.7485 0
M  V30 57 H -0.8522 2.6836 -4.3677 0
M  V30 58 H -0.5717 4.392 -3.9919 0
M  V30 59 H -3.7247 0.0789 -0.5096 0
M  V30 60 H -2.8601 -1.1019 0.4581 0
M  V30 61 H -2.8373 0.4851 -2.999 0
M  V30 62 H -1.4093 -0.4227 -3.4837 0
M  V30 63 H 0.7548 -4.0477 -0.1035 0
M  V30 64 H -3.6633 -2.9426 -0.9702 0
M  V30 65 H -5.0386 -1.9641 -0.4826 0
M  V30 66 H -2.6635 -2.5468 -3.3984 0
M  V30 67 H -3.4927 -1.3953 -4.4471 0
M  V30 68 H -5.0772 -2.5832 -2.9187 0
M  V30 69 H -5.0925 -0.8394 -2.6577 0
M  V30 END ATOM
M  V30 BEGIN BOND
M  V30 1 2 1 2
M  V30 2 1 2 3
M  V30 3 1 2 4
M  V30 4 2 4 5
M  V30 5 1 4 6
M  V30 6 1 5 7
M  V30 7 1 5 8
M  V30 8 2 6 9
M  V30 9 1 7 10
M  V30 10 2 8 11
M  V30 11 1 10 12
M  V30 12 1 11 13
M  V30 13 1 13 14
M  V30 14 2 14 15
M  V30 15 1 14 16
M  V30 16 1 16 17
M  V30 17 1 17 18
M  V30 18 1 17 19
M  V30 19 2 18 20
M  V30 20 1 18 21
M  V30 21 1 19 22
M  V30 22 1 20 23
M  V30 23 1 20 24
M  V30 24 2 21 25
M  V30 25 1 22 26
M  V30 26 1 22 27
M  V30 27 1 23 28
M  V30 28 1 23 29
M  V30 29 2 24 30
M  V30 30 1 28 31
M  V30 31 1 29 32
M  V30 32 1 31 33
M  V30 33 1 9 11
M  V30 34 1 25 30
M  V30 35 1 32 33
M  V30 36 1 3 34
M  V30 37 1 6 35
M  V30 38 1 8 36
M  V30 39 1 9 37
M  V30 40 1 10 38
M  V30 41 1 10 39
M  V30 42 1 12 40
M  V30 43 1 12 41
M  V30 44 1 12 42
M  V30 45 1 13 43
M  V30 46 1 13 44
M  V30 47 1 16 45
M  V30 48 1 17 46
M  V30 49 1 19 47
M  V30 50 1 19 48
M  V30 51 1 21 49
M  V30 52 1 22 50
M  V30 53 1 24 51
M  V30 54 1 25 52
M  V30 55 1 26 53
M  V30 56 1 26 54
M  V30 57 1 26 55
M  V30 58 1 27 56
M  V30 59 1 27 57
M  V30 60 1 27 58
M  V30 61 1 28 59
M  V30 62 1 28 60
M  V30 63 1 29 61
M  V30 64 1 29 62
M  V30 65 1 30 63
M  V30 66 1 31 64
M  V30 67 1 31 65
M  V30 68 1 32 66
M  V30 69 1 32 67
M  V30 70 1 33 68
M  V30 71 1 33 69
M  V30 END BOND
M  V30 BEGIN COLLECTION
M  V30 MDLV30/STERAC1 ATOMS=(1 17)
M  V30 END COLLECTION
M  V30 END CTAB
M  END
>  <level_0>
5236

>  <index>
5236

>  <NO.>
5237

>  <Name>
2-ethoxy-4-[2-[[3-methyl-1-(2-piperidin-1-ylphenyl)butyl]amino]-2-oxoethyl]benzoic acid

>  <SMILES>
CCOc1cc(CC(=O)NC(CC(C)C)c2ccccc2N2CCCCC2)ccc1C(=O)O

>  <logBB>


>  <Class>
-1

>  <MW>
452.27

>  <nHBAcc>
4

>  <nHBDon>
2

>  <SLogP>
5.22

>  <TopoPSA>
78.87

>  <MMFF94 Energy>
54.562

$$$$
CCOc1nc2cccc(C(=O)OC(C)OC(=O)OC3CCCCC3)c2n1Cc1ccc(-c2ccccc2-c2nn[nH]n2)cc1
Actelion Java MolfileCreator 2.0

  0  0  0  0  0  0              0 V3000
M  V30 BEGIN CTAB
M  V30 COUNTS 79 84 0 0 0
M  V30 BEGIN ATOM
M  V30 1 O 2.9656 3.2866 2.404 0
M  V30 2 C 2.4522 2.233 2.063 0
M  V30 3 O 1.8855 1.3169 2.8844 0
M  V30 4 O 2.3359 1.7808 0.7955 0
M  V30 5 C 1.9122 1.6193 4.2892 0
M  V30 6 C 2.8841 2.6315 -0.212 0 CFG=2
M  V30 7 C 0.7678 0.8423 4.9456 0
M  V30 8 C 3.2607 1.2044 4.8854 0
M  V30 9 O 2.2612 2.3835 -1.4913 0
M  V30 10 C 4.4039 2.5152 -0.3051 0
M  V30 11 C 0.7776 0.9944 6.4627 0
M  V30 12 C 3.2767 1.3563 6.4031 0
M  V30 13 C 2.3339 1.1295 -1.9893 0
M  V30 14 C 2.1258 0.5962 7.0567 0
M  V30 15 O 2.9152 0.1672 -1.5238 0
M  V30 16 C 1.6679 1.1208 -3.2948 0
M  V30 17 C 0.318 1.461 -3.5034 0
M  V30 18 C 2.4583 0.7956 -4.4122 0
M  V30 19 N -0.7788 1.7308 -2.7069 0
M  V30 20 C -0.195 1.5526 -4.8026 0
M  V30 21 C 1.9401 0.855 -5.7023 0
M  V30 22 C -1.8174 2.0834 -3.5378 0
M  V30 23 C -0.916 1.6168 -1.263 0
M  V30 24 N -1.5003 1.9627 -4.8028 0
M  V30 25 C 0.6168 1.2495 -5.9089 0
M  V30 26 O -3.0033 2.4687 -3.0716 0
M  V30 27 C -1.2472 0.207 -0.8359 0
M  V30 28 C -3.9714 2.7532 -4.0815 0
M  V30 29 C -2.5264 -0.3251 -1.0546 0
M  V30 30 C -0.2858 -0.601 -0.2169 0
M  V30 31 C -5.2624 3.1579 -3.3945 0
M  V30 32 C -2.8272 -1.6391 -0.6846 0
M  V30 33 C -0.5877 -1.9156 0.1509 0
M  V30 34 C -1.8585 -2.4563 -0.0877 0
M  V30 35 C -2.1677 -3.8466 0.2822 0
M  V30 36 C -1.7039 -4.9664 -0.4472 0
M  V30 37 C -2.9339 -4.0719 1.4443 0
M  V30 38 C -0.9266 -4.8437 -1.6746 0
M  V30 39 C -1.9962 -6.2635 0.0174 0
M  V30 40 C -3.2257 -5.364 1.8839 0
M  V30 41 N 0.1214 -5.6883 -1.9719 0
M  V30 42 N -1.1628 -3.9613 -2.6605 0
M  V30 43 C -2.7531 -6.4603 1.1728 0
M  V30 44 N 0.5997 -5.3069 -3.1479 0
M  V30 45 N -0.1714 -4.2732 -3.503 0
M  V30 46 H 1.7389 2.6918 4.4492 0
M  V30 47 H 2.6249 3.6733 0.0127 0
M  V30 48 H -0.1914 1.1863 4.54 0
M  V30 49 H 0.8387 -0.2198 4.6768 0
M  V30 50 H 3.4801 0.1641 4.6118 0
M  V30 51 H 4.068 1.8017 4.4462 0
M  V30 52 H 4.7232 1.4732 -0.4018 0
M  V30 53 H 4.8843 2.9017 0.5988 0
M  V30 54 H 4.7851 3.0649 -1.1712 0
M  V30 55 H 0.5556 2.0357 6.7266 0
M  V30 56 H -0.015 0.3777 6.901 0
M  V30 57 H 4.2309 0.9926 6.8003 0
M  V30 58 H 3.2062 2.4196 6.6636 0
M  V30 59 H 2.2787 -0.4815 6.9215 0
M  V30 60 H 2.1241 0.7856 8.1359 0
M  V30 61 H 3.4998 0.5098 -4.2694 0
M  V30 62 H 2.5699 0.6117 -6.5546 0
M  V30 63 H -0.0021 1.9754 -0.7915 0
M  V30 64 H -1.7054 2.3011 -0.9297 0
M  V30 65 H 0.2058 1.3204 -6.911 0
M  V30 66 H -4.151 1.863 -4.6962 0
M  V30 67 H -3.6237 3.5757 -4.7181 0
M  V30 68 H -3.3027 0.2723 -1.5279 0
M  V30 69 H 0.7152 -0.2284 -0.0136 0
M  V30 70 H -6.04 3.3866 -4.1286 0
M  V30 71 H -5.6185 2.3553 -2.7401 0
M  V30 72 H -5.1033 4.0375 -2.762 0
M  V30 73 H -3.8204 -2.034 -0.8881 0
M  V30 74 H 0.1854 -2.5224 0.6185 0
M  V30 75 H -3.2979 -3.2247 2.0238 0
M  V30 76 H -1.6389 -7.1338 -0.5311 0
M  V30 77 H -3.8151 -5.5108 2.7853 0
M  V30 78 H -2.9727 -7.4688 1.5135 0
M  V30 79 H -0.0161 -3.7613 -4.3666 0
M  V30 END ATOM
M  V30 BEGIN BOND
M  V30 1 2 1 2
M  V30 2 1 2 3
M  V30 3 1 2 4
M  V30 4 1 3 5
M  V30 5 1 4 6
M  V30 6 1 5 7
M  V30 7 1 5 8
M  V30 8 1 6 9
M  V30 9 1 6 10
M  V30 10 1 7 11
M  V30 11 1 8 12
M  V30 12 1 9 13
M  V30 13 1 11 14
M  V30 14 2 13 15
M  V30 15 1 13 16
M  V30 16 2 16 17
M  V30 17 1 16 18
M  V30 18 1 17 19
M  V30 19 1 17 20
M  V30 20 2 18 21
M  V30 21 1 19 22
M  V30 22 1 19 23
M  V30 23 1 20 24
M  V30 24 2 20 25
M  V30 25 1 22 26
M  V30 26 1 23 27
M  V30 27 1 26 28
M  V30 28 2 27 29
M  V30 29 1 27 30
M  V30 30 1 28 31
M  V30 31 1 29 32
M  V30 32 2 30 33
M  V30 33 2 32 34
M  V30 34 1 34 35
M  V30 35 2 35 36
M  V30 36 1 35 37
M  V30 37 1 36 38
M  V30 38 1 36 39
M  V30 39 2 37 40
M  V30 40 1 38 41
M  V30 41 2 38 42
M  V30 42 2 39 43
M  V30 43 2 41 44
M  V30 44 1 42 45
M  V30 45 1 12 14
M  V30 46 1 21 25
M  V30 47 2 22 24
M  V30 48 1 33 34
M  V30 49 1 40 43
M  V30 50 1 44 45
M  V30 51 1 5 46
M  V30 52 1 6 47
M  V30 53 1 7 48
M  V30 54 1 7 49
M  V30 55 1 8 50
M  V30 56 1 8 51
M  V30 57 1 10 52
M  V30 58 1 10 53
M  V30 59 1 10 54
M  V30 60 1 11 55
M  V30 61 1 11 56
M  V30 62 1 12 57
M  V30 63 1 12 58
M  V30 64 1 14 59
M  V30 65 1 14 60
M  V30 66 1 18 61
M  V30 67 1 21 62
M  V30 68 1 23 63
M  V30 69 1 23 64
M  V30 70 1 25 65
M  V30 71 1 28 66
M  V30 72 1 28 67
M  V30 73 1 29 68
M  V30 74 1 30 69
M  V30 75 1 31 70
M  V30 76 1 31 71
M  V30 77 1 31 72
M  V30 78 1 32 73
M  V30 79 1 33 74
M  V30 80 1 37 75
M  V30 81 1 39 76
M  V30 82 1 40 77
M  V30 83 1 43 78
M  V30 84 1 45 79
M  V30 END BOND
M  V30 BEGIN COLLECTION
M  V30 MDLV30/STERAC1 ATOMS=(1 6)
M  V30 END COLLECTION
M  V30 END CTAB
M  END
>  <level_0>
5239

>  <index>
5239

>  <NO.>
5240

>  <Name>
candesartan cilexetil

>  <SMILES>
CCOc1nc2cccc(C(=O)OC(C)OC(=O)OC3CCCCC3)c2n1Cc1ccc(-c2ccccc2-c2nn[nH]n2)cc1

>  <logBB>


>  <Class>
-1

>  <MW>
610.25

>  <nHBAcc>
10

>  <nHBDon>
1

>  <SLogP>
6.32

>  <TopoPSA>
143.34

>  <MMFF94 Energy>
32.147

$$$$
CC[C@H]1OC(=O)[C@H](C)C(=O)[C@H](C)[C@@H](O[C@@H]2O[C@H](C)C[C@H](N(C)C)[C@H]2O)[C@](C)(OC)C[C@@H](C)C(=O)[C@H](C)[C@H]2N(CCCCn3cnc(-c4cccnc4)c3)C(=O)O[C@]12C
Actelion Java MolfileCreator 2.0

  0  0  0  0  0  0              0 V3000
M  V30 BEGIN CTAB
M  V30 COUNTS 123 127 0 0 0
M  V30 BEGIN ATOM
M  V30 1 O -3.0205 4.9318 -1.3504 0
M  V30 2 C -2.0889 4.1509 -1.4808 0
M  V30 3 O -1.8936 3.0379 -0.7178 0
M  V30 4 C -0.9376 4.3854 -2.4322 0 CFG=1
M  V30 5 C -2.8478 2.6383 0.3125 0 CFG=1
M  V30 6 C -0.3244 3.1084 -2.9758 0
M  V30 7 C -1.3641 5.2503 -3.6147 0
M  V30 8 C -2.4908 3.2747 1.7097 0 CFG=1
M  V30 9 C -4.3368 2.7224 -0.0878 0
M  V30 10 O -1.0159 2.2489 -3.5246 0
M  V30 11 C 1.1888 2.9366 -2.8248 0 CFG=1
M  V30 12 O -3.529 2.9398 2.6715 0
M  V30 13 C -1.2362 2.5539 2.3094 0 CFG=2
M  V30 14 C -2.454 4.8006 1.6468 0
M  V30 15 C -4.6379 1.9928 -1.3922 0
M  V30 16 C 1.4701 1.7257 -1.8844 0 CFG=1
M  V30 17 C 1.8494 2.8902 -4.2007 0
M  V30 18 C -3.2047 1.7705 3.2883 0
M  V30 19 N -1.889 1.4795 3.0343 0
M  V30 20 C -0.3144 3.4267 3.208 0 CFG=2
M  V30 21 O 2.0596 0.6168 -2.5811 0
M  V30 22 C 2.3885 2.1111 -0.6421 0 CFG=2
M  V30 23 O -3.9886 1.0847 3.9202 0
M  V30 24 C -1.3177 0.163 3.2646 0
M  V30 25 C 0.7634 4.085 2.34 0
M  V30 26 C 0.3561 2.7299 4.3957 0
M  V30 27 C 1.0966 -0.2404 -3.2271 0 CFG=2
M  V30 28 O 2.7215 1.0047 0.2212 0
M  V30 29 C 1.6819 3.2211 0.1973 0
M  V30 30 C 3.7613 2.6112 -1.1317 0
M  V30 31 C -1.7406 -0.8274 2.1765 0
M  V30 32 O 0.7089 5.29 2.0848 0
M  V30 33 C 1.8629 3.2091 1.7271 0 CFG=1
M  V30 34 O 0.1867 -0.7956 -2.2781 0
M  V30 35 C 1.8888 -1.3598 -3.9364 0 CFG=2
M  V30 36 C 1.7362 0.0144 0.4519 0
M  V30 37 C -1.1427 -2.2217 2.3646 0
M  V30 38 C 3.2254 3.714 2.1828 0
M  V30 39 C -0.8141 -1.5878 -2.92 0 CFG=1
M  V30 40 O 2.7704 -0.7722 -4.907 0
M  V30 41 C 0.9035 -2.3588 -4.605 0 CFG=2
M  V30 42 C -1.7054 -2.959 3.5801 0
M  V30 43 C -0.1616 -2.8032 -3.5824 0
M  V30 44 C -1.8145 -2.0128 -1.8535 0
M  V30 45 N 1.5867 -3.4767 -5.3061 0
M  V30 46 N -1.1971 -4.3146 3.6631 0
M  V30 47 C 0.7071 -4.1791 -6.238 0
M  V30 48 C 2.2789 -4.4241 -4.4383 0
M  V30 49 C -1.7824 -5.4212 3.1233 0
M  V30 50 C -0.0495 -4.711 4.2934 0
M  V30 51 N -1.068 -6.4979 3.3569 0
M  V30 52 C 0.0188 -6.0747 4.0915 0
M  V30 53 C 1.0568 -6.9755 4.5565 0
M  V30 54 C 0.9957 -8.3317 4.2434 0
M  V30 55 C 2.1481 -6.5545 5.3222 0
M  V30 56 N 1.916 -9.2552 4.6267 0
M  V30 57 C 3.1093 -7.4788 5.7327 0
M  V30 58 C 2.9509 -8.804 5.3635 0
M  V30 59 H -0.1854 4.9326 -1.853 0
M  V30 60 H -2.6721 1.5584 0.4054 0
M  V30 61 H -2.1825 4.7829 -4.1742 0
M  V30 62 H -0.5315 5.4071 -4.3088 0
M  V30 63 H -1.7124 6.2328 -3.2781 0
M  V30 64 H -4.677 3.7583 -0.1694 0
M  V30 65 H -4.9494 2.2651 0.6983 0
M  V30 66 H 1.5504 3.855 -2.3548 0
M  V30 67 H -0.6521 2.0957 1.508 0
M  V30 68 H -2.3936 5.252 2.642 0
M  V30 69 H -3.3894 5.1913 1.2312 0
M  V30 70 H -1.6269 5.1724 1.039 0
M  V30 71 H -5.7127 2.0236 -1.5985 0
M  V30 72 H -4.1232 2.4463 -2.2434 0
M  V30 73 H -4.3372 0.942 -1.3298 0
M  V30 74 H 0.52 1.3908 -1.4516 0
M  V30 75 H 1.4238 2.1212 -4.8502 0
M  V30 76 H 2.9268 2.7184 -4.1159 0
M  V30 77 H 1.7049 3.8456 -4.7183 0
M  V30 78 H -0.8972 4.2328 3.6656 0
M  V30 79 H -0.2286 0.2409 3.2997 0
M  V30 80 H -1.6716 -0.1817 4.2417 0
M  V30 81 H 0.9773 1.8817 4.0997 0
M  V30 82 H 1.0113 3.4311 4.9259 0
M  V30 83 H -0.3891 2.3757 5.1152 0
M  V30 84 H 0.5503 0.3461 -3.9708 0
M  V30 85 H 1.9476 4.2135 -0.1912 0
M  V30 86 H 0.6066 3.1401 0.009 0
M  V30 87 H 4.2556 1.8476 -1.743 0
M  V30 88 H 4.4377 2.8045 -0.2933 0
M  V30 89 H 3.6919 3.5292 -1.7218 0
M  V30 90 H -1.4228 -0.4429 1.2001 0
M  V30 91 H -2.8344 -0.8993 2.1328 0
M  V30 92 H 1.7258 2.1954 2.1077 0
M  V30 93 H 2.513 -1.8731 -3.1958 0
M  V30 94 H 1.983 -0.493 1.3891 0
M  V30 95 H 1.7664 -0.7358 -0.3383 0
M  V30 96 H 0.7379 0.4435 0.5524 0
M  V30 97 H -1.3506 -2.8091 1.4614 0
M  V30 98 H -0.0504 -2.1507 2.4388 0
M  V30 99 H 4.0155 3.0047 1.9221 0
M  V30 100 H 3.2481 3.8469 3.2702 0
M  V30 101 H 3.4671 4.6815 1.7297 0
M  V30 102 H -1.3384 -0.976 -3.6651 0
M  V30 103 H 3.3301 -0.1531 -4.4027 0
M  V30 104 H 0.3931 -1.7802 -5.3893 0
M  V30 105 H -2.7988 -3.0185 3.5328 0
M  V30 106 H -1.4368 -2.4563 4.5152 0
M  V30 107 H -0.9334 -3.4143 -4.0627 0
M  V30 108 H 0.3115 -3.4144 -2.8039 0
M  V30 109 H -2.621 -2.6156 -2.2814 0
M  V30 110 H -1.3237 -2.5913 -1.0635 0
M  V30 111 H -2.2539 -1.1326 -1.371 0
M  V30 112 H -0.0785 -4.7459 -5.7276 0
M  V30 113 H 0.2332 -3.4777 -6.9335 0
M  V30 114 H 1.2838 -4.8797 -6.8525 0
M  V30 115 H 1.59 -5.0055 -3.8166 0
M  V30 116 H 3.0004 -3.9247 -3.7854 0
M  V30 117 H 2.8599 -5.1324 -5.0405 0
M  V30 118 H -2.714 -5.3909 2.5728 0
M  V30 119 H 0.5943 -4.0125 4.8077 0
M  V30 120 H 0.1747 -8.7322 3.6523 0
M  V30 121 H 2.2665 -5.5149 5.6101 0
M  V30 122 H 3.9617 -7.1709 6.3277 0
M  V30 123 H 3.6729 -9.5594 5.6596 0
M  V30 END ATOM
M  V30 BEGIN BOND
M  V30 1 2 1 2
M  V30 2 1 2 3
M  V30 3 1 2 4
M  V30 4 1 3 5
M  V30 5 1 4 6
M  V30 6 1 4 7
M  V30 7 1 5 8
M  V30 8 1 5 9
M  V30 9 2 6 10
M  V30 10 1 6 11
M  V30 11 1 8 12
M  V30 12 1 8 13
M  V30 13 1 8 14
M  V30 14 1 9 15
M  V30 15 1 11 16
M  V30 16 1 11 17
M  V30 17 1 12 18
M  V30 18 1 13 19
M  V30 19 1 13 20
M  V30 20 1 16 21
M  V30 21 1 16 22
M  V30 22 2 18 23
M  V30 23 1 19 24
M  V30 24 1 20 25
M  V30 25 1 20 26
M  V30 26 1 21 27
M  V30 27 1 22 28
M  V30 28 1 22 29
M  V30 29 1 22 30
M  V30 30 1 24 31
M  V30 31 2 25 32
M  V30 32 1 25 33
M  V30 33 1 27 34
M  V30 34 1 27 35
M  V30 35 1 28 36
M  V30 36 1 31 37
M  V30 37 1 33 38
M  V30 38 1 34 39
M  V30 39 1 35 40
M  V30 40 1 35 41
M  V30 41 1 37 42
M  V30 42 1 39 43
M  V30 43 1 39 44
M  V30 44 1 41 45
M  V30 45 1 42 46
M  V30 46 1 45 47
M  V30 47 1 45 48
M  V30 48 1 46 49
M  V30 49 1 46 50
M  V30 50 2 49 51
M  V30 51 2 50 52
M  V30 52 1 52 53
M  V30 53 2 53 54
M  V30 54 1 53 55
M  V30 55 1 54 56
M  V30 56 2 55 57
M  V30 57 2 56 58
M  V30 58 1 18 19
M  V30 59 1 29 33
M  V30 60 1 41 43
M  V30 61 1 51 52
M  V30 62 1 57 58
M  V30 63 1 4 59
M  V30 64 1 5 60
M  V30 65 1 7 61
M  V30 66 1 7 62
M  V30 67 1 7 63
M  V30 68 1 9 64
M  V30 69 1 9 65
M  V30 70 1 11 66
M  V30 71 1 13 67
M  V30 72 1 14 68
M  V30 73 1 14 69
M  V30 74 1 14 70
M  V30 75 1 15 71
M  V30 76 1 15 72
M  V30 77 1 15 73
M  V30 78 1 16 74
M  V30 79 1 17 75
M  V30 80 1 17 76
M  V30 81 1 17 77
M  V30 82 1 20 78
M  V30 83 1 24 79
M  V30 84 1 24 80
M  V30 85 1 26 81
M  V30 86 1 26 82
M  V30 87 1 26 83
M  V30 88 1 27 84
M  V30 89 1 29 85
M  V30 90 1 29 86
M  V30 91 1 30 87
M  V30 92 1 30 88
M  V30 93 1 30 89
M  V30 94 1 31 90
M  V30 95 1 31 91
M  V30 96 1 33 92
M  V30 97 1 35 93
M  V30 98 1 36 94
M  V30 99 1 36 95
M  V30 100 1 36 96
M  V30 101 1 37 97
M  V30 102 1 37 98
M  V30 103 1 38 99
M  V30 104 1 38 100
M  V30 105 1 38 101
M  V30 106 1 39 102
M  V30 107 1 40 103
M  V30 108 1 41 104
M  V30 109 1 42 105
M  V30 110 1 42 106
M  V30 111 1 43 107
M  V30 112 1 43 108
M  V30 113 1 44 109
M  V30 114 1 44 110
M  V30 115 1 44 111
M  V30 116 1 47 112
M  V30 117 1 47 113
M  V30 118 1 47 114
M  V30 119 1 48 115
M  V30 120 1 48 116
M  V30 121 1 48 117
M  V30 122 1 49 118
M  V30 123 1 50 119
M  V30 124 1 54 120
M  V30 125 1 55 121
M  V30 126 1 57 122
M  V30 127 1 58 123
M  V30 END BOND
M  V30 BEGIN COLLECTION
M  V30 MDLV30/STEABS ATOMS=(13 4 5 8 11 13 16 20 22 27 33 35 39 41)
M  V30 END COLLECTION
M  V30 END CTAB
M  END
>  <level_0>
5240

>  <index>
5240

>  <NO.>
5241

>  <Name>
telithromycin

>  <SMILES>
CC[C@H]1OC(=O)[C@H](C)C(=O)[C@H](C)[C@@H](O[C@@H]2O[C@H](C)C[C@H](N(C)C)[C@H]2O)[C@](C)(OC)C[C@@H](C)C(=O)[C@H](C)[C@H]2N(CCCCn3cnc(-c4cccnc4)c3)C(=O)O[C@]12C

>  <logBB>


>  <Class>
-1

>  <MW>
811.47

>  <nHBAcc>
13

>  <nHBDon>
1

>  <SLogP>
4.93

>  <TopoPSA>
171.85

>  <MMFF94 Energy>
128.61

$$$$
CC[N+]1(CC)CCC(=C(c2ccccc2)c2ccccc2)C1C
Actelion Java MolfileCreator 2.0

  0  0  0  0  0  0              0 V3000
M  V30 BEGIN CTAB
M  V30 COUNTS 51 53 0 0 0
M  V30 BEGIN ATOM
M  V30 1 N -2.3716 -0.3159 0.2369 0 CHG=1
M  V30 2 C -0.943 -0.9307 0.2074 0 CFG=2
M  V30 3 C -2.4518 0.4243 -1.1154 0
M  V30 4 C -3.5232 -1.3468 0.2973 0
M  V30 5 C -2.5542 0.6535 1.4358 0
M  V30 6 C -0.1082 0.0525 -0.5811 0
M  V30 7 C -0.8989 -2.2892 -0.5079 0
M  V30 8 C -1.0266 0.8135 -1.5052 0
M  V30 9 C -3.5748 -2.1198 1.6072 0
M  V30 10 C -1.7204 1.9228 1.4169 0
M  V30 11 C 1.2184 0.2889 -0.4348 0
M  V30 12 C 1.8646 1.313 -1.2867 0
M  V30 13 C 1.9952 -0.4829 0.5604 0
M  V30 14 C 2.1809 1.0309 -2.6224 0
M  V30 15 C 2.1677 2.5752 -0.7611 0
M  V30 16 C 2.0172 -0.0967 1.9071 0
M  V30 17 C 2.7258 -1.6074 0.1579 0
M  V30 18 C 2.7814 2.0035 -3.4234 0
M  V30 19 C 2.7685 3.5456 -1.5649 0
M  V30 20 C 2.7406 -0.8407 2.8408 0
M  V30 21 C 3.4475 -2.35 1.0937 0
M  V30 22 C 3.0725 3.2601 -2.8949 0
M  V30 23 C 3.4509 -1.9687 2.4343 0
M  V30 24 H -0.6257 -1.0418 1.2484 0
M  V30 25 H -3.1363 1.2733 -1.0205 0
M  V30 26 H -2.861 -0.2738 -1.8552 0
M  V30 27 H -4.456 -0.7871 0.1558 0
M  V30 28 H -3.4216 -2.0261 -0.5543 0
M  V30 29 H -3.6155 0.9279 1.4562 0
M  V30 30 H -2.3213 0.087 2.3434 0
M  V30 31 H -1.3121 -2.24 -1.5216 0
M  V30 32 H 0.1306 -2.6493 -0.602 0
M  V30 33 H -1.4376 -3.0629 0.0449 0
M  V30 34 H -0.8479 0.5423 -2.5513 0
M  V30 35 H -0.8939 1.8956 -1.4073 0
M  V30 36 H -4.2771 -2.9547 1.5118 0
M  V30 37 H -2.6043 -2.5297 1.8968 0
M  V30 38 H -3.9396 -1.4938 2.4275 0
M  V30 39 H -1.9541 2.5163 2.3083 0
M  V30 40 H -1.9428 2.5558 0.5549 0
M  V30 41 H -0.6497 1.7192 1.4527 0
M  V30 42 H 1.9728 0.0519 -3.0463 0
M  V30 43 H 1.9481 2.812 0.2766 0
M  V30 44 H 1.4913 0.7941 2.2388 0
M  V30 45 H 2.7485 -1.9089 -0.8868 0
M  V30 46 H 3.0327 1.7801 -4.4575 0
M  V30 47 H 3.0096 4.5226 -1.1525 0
M  V30 48 H 2.7667 -0.5332 3.8838 0
M  V30 49 H 4.0198 -3.2185 0.7758 0
M  V30 50 H 3.5482 4.0147 -3.5175 0
M  V30 51 H 4.0247 -2.5414 3.1599 0
M  V30 END ATOM
M  V30 BEGIN BOND
M  V30 1 1 1 2
M  V30 2 1 1 3
M  V30 3 1 1 4
M  V30 4 1 1 5
M  V30 5 1 2 6
M  V30 6 1 2 7
M  V30 7 1 3 8
M  V30 8 1 4 9
M  V30 9 1 5 10
M  V30 10 2 6 11
M  V30 11 1 11 12
M  V30 12 1 11 13
M  V30 13 2 12 14
M  V30 14 1 12 15
M  V30 15 2 13 16
M  V30 16 1 13 17
M  V30 17 1 14 18
M  V30 18 2 15 19
M  V30 19 1 16 20
M  V30 20 2 17 21
M  V30 21 2 18 22
M  V30 22 2 20 23
M  V30 23 1 6 8
M  V30 24 1 19 22
M  V30 25 1 21 23
M  V30 26 1 2 24
M  V30 27 1 3 25
M  V30 28 1 3 26
M  V30 29 1 4 27
M  V30 30 1 4 28
M  V30 31 1 5 29
M  V30 32 1 5 30
M  V30 33 1 7 31
M  V30 34 1 7 32
M  V30 35 1 7 33
M  V30 36 1 8 34
M  V30 37 1 8 35
M  V30 38 1 9 36
M  V30 39 1 9 37
M  V30 40 1 9 38
M  V30 41 1 10 39
M  V30 42 1 10 40
M  V30 43 1 10 41
M  V30 44 1 14 42
M  V30 45 1 15 43
M  V30 46 1 16 44
M  V30 47 1 17 45
M  V30 48 1 18 46
M  V30 49 1 19 47
M  V30 50 1 20 48
M  V30 51 1 21 49
M  V30 52 1 22 50
M  V30 53 1 23 51
M  V30 END BOND
M  V30 BEGIN COLLECTION
M  V30 MDLV30/STERAC1 ATOMS=(1 2)
M  V30 END COLLECTION
M  V30 END CTAB
M  END
>  <level_0>
5243

>  <index>
5243

>  <NO.>
5244

>  <Name>
prifinium

>  <SMILES>
CC[N+]1(CC)CCC(=C(c2ccccc2)c2ccccc2)C1C

>  <logBB>


>  <Class>
-1

>  <MW>
306.22

>  <nHBAcc>
0

>  <nHBDon>
0

>  <SLogP>
5.14

>  <TopoPSA>
0.0

>  <MMFF94 Energy>
72.302

$$$$
CCn1cc(C(=O)O)c(=O)c2cnc(N3CCNCC3)nc21
Actelion Java MolfileCreator 2.0

  0  0  0  0  0  0              0 V3000
M  V30 BEGIN CTAB
M  V30 COUNTS 39 41 0 0 0
M  V30 BEGIN ATOM
M  V30 1 O 0.1593 -4.1486 1.7535 0
M  V30 2 C 0.4174 -2.9599 1.9029 0
M  V30 3 C 1.0581 -2.4081 3.1226 0
M  V30 4 C 0.0522 -2.0074 0.8426 0
M  V30 5 C 1.5659 -3.1982 4.2515 0
M  V30 6 C 1.1776 -1.072 3.1909 0
M  V30 7 C 0.2287 -0.6464 1.0024 0
M  V30 8 C -0.4887 -2.4213 -0.3465 0
M  V30 9 O 1.7603 -2.7781 5.3809 0
M  V30 10 O 1.8724 -4.462 3.9289 0
M  V30 11 N 0.7793 -0.1714 2.2176 0
M  V30 12 N -0.1155 0.2173 0.0234 0
M  V30 13 N -0.8343 -1.569 -1.3312 0
M  V30 14 C 0.9583 1.2798 2.3367 0
M  V30 15 C -0.6384 -0.257 -1.122 0
M  V30 16 C 2.2761 1.7218 1.7163 0
M  V30 17 N -0.9691 0.6348 -2.1226 0
M  V30 18 C -1.8362 0.1544 -3.2005 0
M  V30 19 C -1.0702 2.0512 -1.7691 0
M  V30 20 C -1.8283 1.1249 -4.4015 0
M  V30 21 C -1.0899 2.9435 -3.0292 0
M  V30 22 N -2.0855 2.5294 -4.0336 0
M  V30 23 H 1.6302 -0.5959 4.0598 0
M  V30 24 H -0.667 -3.4718 -0.558 0
M  V30 25 H 2.1828 -4.8716 4.7615 0
M  V30 26 H 0.9612 1.5616 3.3976 0
M  V30 27 H 0.1199 1.8316 1.8937 0
M  V30 28 H 2.3106 1.5024 0.6446 0
M  V30 29 H 3.1231 1.2135 2.1889 0
M  V30 30 H 2.4116 2.8002 1.8453 0
M  V30 31 H -2.8616 0.0481 -2.8235 0
M  V30 32 H -1.5108 -0.8241 -3.574 0
M  V30 33 H -0.2197 2.3752 -1.1567 0
M  V30 34 H -1.9865 2.2181 -1.1883 0
M  V30 35 H -0.8594 1.0604 -4.9131 0
M  V30 36 H -2.5896 0.8056 -5.1217 0
M  V30 37 H -0.0936 2.9431 -3.4896 0
M  V30 38 H -1.3012 3.9761 -2.7302 0
M  V30 39 H -1.9824 3.1123 -4.8631 0
M  V30 END ATOM
M  V30 BEGIN BOND
M  V30 1 2 1 2
M  V30 2 1 2 3
M  V30 3 1 2 4
M  V30 4 1 3 5
M  V30 5 2 3 6
M  V30 6 2 4 7
M  V30 7 1 4 8
M  V30 8 2 5 9
M  V30 9 1 5 10
M  V30 10 1 6 11
M  V30 11 1 7 12
M  V30 12 2 8 13
M  V30 13 1 11 14
M  V30 14 2 12 15
M  V30 15 1 14 16
M  V30 16 1 15 17
M  V30 17 1 17 18
M  V30 18 1 17 19
M  V30 19 1 18 20
M  V30 20 1 19 21
M  V30 21 1 20 22
M  V30 22 1 7 11
M  V30 23 1 13 15
M  V30 24 1 21 22
M  V30 25 1 6 23
M  V30 26 1 8 24
M  V30 27 1 10 25
M  V30 28 1 14 26
M  V30 29 1 14 27
M  V30 30 1 16 28
M  V30 31 1 16 29
M  V30 32 1 16 30
M  V30 33 1 18 31
M  V30 34 1 18 32
M  V30 35 1 19 33
M  V30 36 1 19 34
M  V30 37 1 20 35
M  V30 38 1 20 36
M  V30 39 1 21 37
M  V30 40 1 21 38
M  V30 41 1 22 39
M  V30 END BOND
M  V30 END CTAB
M  END
>  <level_0>
5247

>  <index>
5247

>  <NO.>
5248

>  <Name>
pipemidic

>  <SMILES>
CCn1cc(C(=O)O)c(=O)c2cnc(N3CCNCC3)nc21

>  <logBB>


>  <Class>
-1

>  <MW>
303.13

>  <nHBAcc>
6

>  <nHBDon>
2

>  <SLogP>
-0.08

>  <TopoPSA>
100.35

>  <MMFF94 Energy>
-24.157

$$$$
CN1C(=O)CC(C(=O)NC(Cc2cnc[nH]2)C(=O)N2CCCC2C(N)=O)NC1=O
Actelion Java MolfileCreator 2.0

  0  0  0  0  0  0              0 V3000
M  V30 BEGIN CTAB
M  V30 COUNTS 52 54 0 0 0
M  V30 BEGIN ATOM
M  V30 1 O -3.8894 -1.5861 -3.492 0
M  V30 2 C -4.1223 -0.8898 -2.509 0
M  V30 3 N -5.3504 -0.7853 -1.8833 0
M  V30 4 N -3.1112 -0.157 -1.9662 0
M  V30 5 C -5.5531 -0.1892 -0.6437 0
M  V30 6 C -6.4977 -1.408 -2.5163 0
M  V30 7 C -3.3453 0.8444 -0.9477 0
M  V30 8 O -6.6544 -0.1186 -0.0967 0
M  V30 9 C -4.3231 0.3048 0.0672 0
M  V30 10 C -2.045 1.2417 -0.2393 0
M  V30 11 O -1.9098 2.3216 0.3317 0
M  V30 12 N -1.1003 0.2469 -0.1523 0
M  V30 13 C 0.1599 0.4338 0.5687 0
M  V30 14 C 1.1439 -0.6027 -0.0072 0
M  V30 15 C -0.0407 0.2037 2.0767 0
M  V30 16 O 0.8004 -1.784 -0.1112 0
M  V30 17 N 2.3774 -0.168 -0.4416 0
M  V30 18 C 1.1436 0.6214 2.8746 0
M  V30 19 C 3.305 -1.0909 -1.1108 0
M  V30 20 C 2.8438 1.2077 -0.5282 0
M  V30 21 N 1.4027 1.925 3.2207 0
M  V30 22 C 2.1751 -0.1024 3.4289 0
M  V30 23 C 4.1301 -1.9677 -0.1487 0
M  V30 24 C 4.2304 -0.164 -1.903 0
M  V30 25 C 4.2626 1.1097 -1.0649 0
M  V30 26 C 2.5967 1.9397 3.8842 0
M  V30 27 N 3.0965 0.7309 4.0023 0
M  V30 28 O 4.7383 -2.969 -0.5193 0
M  V30 29 N 4.3041 -1.4927 1.1186 0
M  V30 30 H -2.2392 -0.186 -2.4842 0
M  V30 31 H -7.3652 -0.7432 -2.4518 0
M  V30 32 H -6.3077 -1.6442 -3.5666 0
M  V30 33 H -6.7299 -2.3317 -1.9762 0
M  V30 34 H -3.7446 1.7292 -1.458 0
M  V30 35 H -4.6069 1.0852 0.7823 0
M  V30 36 H -3.9022 -0.5344 0.6343 0
M  V30 37 H -1.2904 -0.6767 -0.5365 0
M  V30 38 H 0.4949 1.4571 0.3802 0
M  V30 39 H -0.917 0.7622 2.4305 0
M  V30 40 H -0.2591 -0.8539 2.2743 0
M  V30 41 H 2.747 -1.765 -1.7707 0
M  V30 42 H 2.7989 1.6959 0.4483 0
M  V30 43 H 2.1917 1.7434 -1.2268 0
M  V30 44 H 0.8257 2.7321 3.0183 0
M  V30 45 H 2.3169 -1.1768 3.4159 0
M  V30 46 H 3.7833 0.057 -2.8802 0
M  V30 47 H 5.2312 -0.5736 -2.0702 0
M  V30 48 H 4.9737 0.9976 -0.2382 0
M  V30 49 H 4.5537 1.9915 -1.6425 0
M  V30 50 H 3.0452 2.8517 4.2561 0
M  V30 51 H 4.8764 -2.024 1.7608 0
M  V30 52 H 3.8532 -0.6512 1.4515 0
M  V30 END ATOM
M  V30 BEGIN BOND
M  V30 1 2 1 2
M  V30 2 1 2 3
M  V30 3 1 2 4
M  V30 4 1 3 5
M  V30 5 1 3 6
M  V30 6 1 4 7
M  V30 7 2 5 8
M  V30 8 1 5 9
M  V30 9 1 7 10
M  V30 10 2 10 11
M  V30 11 1 10 12
M  V30 12 1 12 13
M  V30 13 1 13 14
M  V30 14 1 13 15
M  V30 15 2 14 16
M  V30 16 1 14 17
M  V30 17 1 15 18
M  V30 18 1 17 19
M  V30 19 1 17 20
M  V30 20 1 18 21
M  V30 21 2 18 22
M  V30 22 1 19 23
M  V30 23 1 19 24
M  V30 24 1 20 25
M  V30 25 1 21 26
M  V30 26 1 22 27
M  V30 27 2 23 28
M  V30 28 1 23 29
M  V30 29 1 7 9
M  V30 30 1 24 25
M  V30 31 2 26 27
M  V30 32 1 4 30
M  V30 33 1 6 31
M  V30 34 1 6 32
M  V30 35 1 6 33
M  V30 36 1 7 34
M  V30 37 1 9 35
M  V30 38 1 9 36
M  V30 39 1 12 37
M  V30 40 1 13 38
M  V30 41 1 15 39
M  V30 42 1 15 40
M  V30 43 1 19 41
M  V30 44 1 20 42
M  V30 45 1 20 43
M  V30 46 1 21 44
M  V30 47 1 22 45
M  V30 48 1 24 46
M  V30 49 1 24 47
M  V30 50 1 25 48
M  V30 51 1 25 49
M  V30 52 1 26 50
M  V30 53 1 29 51
M  V30 54 1 29 52
M  V30 END BOND
M  V30 END CTAB
M  END
>  <level_0>
5260

>  <index>
5260

>  <NO.>
5261

>  <Name>
taltirelin

>  <SMILES>
CN1C(=O)CC(C(=O)NC(Cc2cnc[nH]2)C(=O)N2CCCC2C(N)=O)NC1=O

>  <logBB>


>  <Class>
1

>  <MW>
405.18

>  <nHBAcc>
6

>  <nHBDon>
4

>  <SLogP>
-2.15

>  <TopoPSA>
170.59

>  <MMFF94 Energy>
-70.279

$$$$
CN1CCCC(CC2c3ccccc3Sc3ccccc32)C1
Actelion Java MolfileCreator 2.0

  0  0  0  0  0  0              0 V3000
M  V30 BEGIN CTAB
M  V30 COUNTS 45 48 0 0 0
M  V30 BEGIN ATOM
M  V30 1 S 0.0 3.9733 -0.1619 0
M  V30 2 C 0.5169 3.2959 1.402 0
M  V30 3 C -1.2786 2.8293 -0.6423 0
M  V30 4 C 0.316 1.9498 1.7421 0
M  V30 5 C 1.134 4.1586 2.3186 0
M  V30 6 C -1.3459 1.5199 -0.1418 0
M  V30 7 C -2.2612 3.2866 -1.5322 0
M  V30 8 C 0.7273 1.4972 3.0108 0
M  V30 9 C -0.2529 0.9462 0.7459 0
M  V30 10 C 1.5351 3.6978 3.573 0
M  V30 11 C -2.4302 0.705 -0.5199 0
M  V30 12 C -3.3222 2.4628 -1.9074 0
M  V30 13 C 1.3275 2.3674 3.9207 0
M  V30 14 C 0.9163 0.3444 -0.0809 0
M  V30 15 C -3.4102 1.1736 -1.3951 0
M  V30 16 C 0.5848 -0.9202 -0.9041 0 CFG=2
M  V30 17 C 0.2207 -2.1213 -0.0093 0
M  V30 18 C 1.7836 -1.2813 -1.7975 0
M  V30 19 N -0.0495 -3.3261 -0.8077 0
M  V30 20 C 1.5172 -2.5729 -2.562 0
M  V30 21 C 1.1173 -3.7033 -1.616 0
M  V30 22 C -0.4504 -4.4368 0.0564 0
M  V30 23 H 1.2973 5.2039 2.0645 0
M  V30 24 H -2.2143 4.2983 -1.9296 0
M  V30 25 H 0.5909 0.4552 3.2927 0
M  V30 26 H -0.7159 0.1563 1.351 0
M  V30 27 H 2.0064 4.3792 4.2765 0
M  V30 28 H -2.5095 -0.3143 -0.1474 0
M  V30 29 H -4.0803 2.831 -2.5935 0
M  V30 30 H 1.6398 2.0047 4.8968 0
M  V30 31 H 1.7473 0.0966 0.5948 0
M  V30 32 H 1.3097 1.1107 -0.7631 0
M  V30 33 H -4.2355 0.5274 -1.6832 0
M  V30 34 H -0.2612 -0.7049 -1.5682 0
M  V30 35 H 1.0272 -2.308 0.7127 0
M  V30 36 H -0.6787 -1.8807 0.567 0
M  V30 37 H 2.6862 -1.402 -1.1847 0
M  V30 38 H 1.9847 -0.4709 -2.5081 0
M  V30 39 H 0.719 -2.4061 -3.2966 0
M  V30 40 H 2.4131 -2.8604 -3.1238 0
M  V30 41 H 0.8803 -4.5871 -2.2208 0
M  V30 42 H 1.969 -3.966 -0.9745 0
M  V30 43 H -0.6992 -5.3201 -0.5423 0
M  V30 44 H -1.3526 -4.1783 0.622 0
M  V30 45 H 0.3361 -4.7123 0.7683 0
M  V30 END ATOM
M  V30 BEGIN BOND
M  V30 1 1 1 2
M  V30 2 1 1 3
M  V30 3 2 2 4
M  V30 4 1 2 5
M  V30 5 2 3 6
M  V30 6 1 3 7
M  V30 7 1 4 8
M  V30 8 1 4 9
M  V30 9 2 5 10
M  V30 10 1 6 11
M  V30 11 2 7 12
M  V30 12 2 8 13
M  V30 13 1 9 14
M  V30 14 2 11 15
M  V30 15 1 14 16
M  V30 16 1 16 17
M  V30 17 1 16 18
M  V30 18 1 17 19
M  V30 19 1 18 20
M  V30 20 1 19 21
M  V30 21 1 19 22
M  V30 22 1 6 9
M  V30 23 1 10 13
M  V30 24 1 12 15
M  V30 25 1 20 21
M  V30 26 1 5 23
M  V30 27 1 7 24
M  V30 28 1 8 25
M  V30 29 1 9 26
M  V30 30 1 10 27
M  V30 31 1 11 28
M  V30 32 1 12 29
M  V30 33 1 13 30
M  V30 34 1 14 31
M  V30 35 1 14 32
M  V30 36 1 15 33
M  V30 37 1 16 34
M  V30 38 1 17 35
M  V30 39 1 17 36
M  V30 40 1 18 37
M  V30 41 1 18 38
M  V30 42 1 20 39
M  V30 43 1 20 40
M  V30 44 1 21 41
M  V30 45 1 21 42
M  V30 46 1 22 43
M  V30 47 1 22 44
M  V30 48 1 22 45
M  V30 END BOND
M  V30 BEGIN COLLECTION
M  V30 MDLV30/STERAC1 ATOMS=(1 16)
M  V30 END COLLECTION
M  V30 END CTAB
M  END
>  <level_0>
5270

>  <index>
5270

>  <NO.>
5271

>  <Name>
metixene

>  <SMILES>
CN1CCCC(CC2c3ccccc3Sc3ccccc32)C1

>  <logBB>


>  <Class>
1

>  <MW>
309.16

>  <nHBAcc>
2

>  <nHBDon>
0

>  <SLogP>
5.02

>  <TopoPSA>
3.24

>  <MMFF94 Energy>
53.283

$$$$
CN1CCCC1CCOC(C)(c1ccccc1)c1ccc(Cl)cc1
Actelion Java MolfileCreator 2.0

  0  0  0  0  0  0              0 V3000
M  V30 BEGIN CTAB
M  V30 COUNTS 50 52 0 0 0
M  V30 BEGIN ATOM
M  V30 1 Cl 4.4817 5.6046 -2.0789 0
M  V30 2 C 3.3067 4.5363 -1.4169 0
M  V30 3 C 2.035 5.0102 -1.1104 0
M  V30 4 C 3.6333 3.2037 -1.1875 0
M  V30 5 C 1.0808 4.1422 -0.5712 0
M  V30 6 C 2.6785 2.3358 -0.6488 0
M  V30 7 C 1.381 2.7848 -0.3364 0
M  V30 8 C 0.3233 1.8336 0.2808 0
M  V30 9 O 0.8042 0.4803 0.0948 0
M  V30 10 C -1.0211 1.963 -0.4595 0
M  V30 11 C 0.2762 2.1629 1.79 0
M  V30 12 C 0.0922 -0.5529 0.7748 0
M  V30 13 C -2.1721 2.5116 0.1318 0
M  V30 14 C -1.1153 1.5216 -1.7952 0
M  V30 15 C 0.5434 -1.8916 0.1939 0
M  V30 16 C -3.3695 2.6094 -0.5835 0
M  V30 17 C -2.3114 1.6194 -2.5077 0
M  V30 18 C -0.1165 -3.0838 0.8933 0
M  V30 19 C -3.4389 2.1634 -1.9007 0
M  V30 20 N 0.28 -4.3851 0.3305 0
M  V30 21 C -1.6389 -3.1061 0.7204 0
M  V30 22 C -0.7144 -5.3369 0.832 0
M  V30 23 C 1.6326 -4.7899 0.6956 0
M  V30 24 C -2.0247 -4.5806 0.6992 0
M  V30 25 H 1.7767 6.0504 -1.2886 0
M  V30 26 H 4.6256 2.8299 -1.4242 0
M  V30 27 H 0.0929 4.5368 -0.3411 0
M  V30 28 H 2.9587 1.2982 -0.4767 0
M  V30 29 H 1.2386 1.9391 2.2669 0
M  V30 30 H 0.0476 3.218 1.9808 0
M  V30 31 H -0.4781 1.5676 2.3166 0
M  V30 32 H -0.9874 -0.4295 0.6511 0
M  V30 33 H 0.3369 -0.5193 1.8415 0
M  V30 34 H -2.1624 2.8764 1.1552 0
M  V30 35 H -0.242 1.0923 -2.2851 0
M  V30 36 H 0.3313 -1.9075 -0.8832 0
M  V30 37 H 1.6353 -1.953 0.2784 0
M  V30 38 H -4.2504 3.0367 -0.1106 0
M  V30 39 H -2.359 1.2706 -3.5359 0
M  V30 40 H 0.1136 -3.0523 1.968 0
M  V30 41 H -4.3707 2.2409 -2.4545 0
M  V30 42 H -2.1395 -2.579 1.5399 0
M  V30 43 H -1.952 -2.6356 -0.2195 0
M  V30 44 H -0.7252 -6.2647 0.2515 0
M  V30 45 H -0.5389 -5.5878 1.8862 0
M  V30 46 H 2.3753 -4.1133 0.2619 0
M  V30 47 H 1.8511 -5.7868 0.2968 0
M  V30 48 H 1.7818 -4.816 1.781 0
M  V30 49 H -2.5186 -4.8207 -0.2495 0
M  V30 50 H -2.7167 -4.8304 1.5099 0
M  V30 END ATOM
M  V30 BEGIN BOND
M  V30 1 1 1 2
M  V30 2 2 2 3
M  V30 3 1 2 4
M  V30 4 1 3 5
M  V30 5 2 4 6
M  V30 6 2 5 7
M  V30 7 1 7 8
M  V30 8 1 8 9
M  V30 9 1 8 10
M  V30 10 1 8 11
M  V30 11 1 9 12
M  V30 12 2 10 13
M  V30 13 1 10 14
M  V30 14 1 12 15
M  V30 15 1 13 16
M  V30 16 2 14 17
M  V30 17 1 15 18
M  V30 18 2 16 19
M  V30 19 1 18 20
M  V30 20 1 18 21
M  V30 21 1 20 22
M  V30 22 1 20 23
M  V30 23 1 21 24
M  V30 24 1 6 7
M  V30 25 1 17 19
M  V30 26 1 22 24
M  V30 27 1 3 25
M  V30 28 1 4 26
M  V30 29 1 5 27
M  V30 30 1 6 28
M  V30 31 1 11 29
M  V30 32 1 11 30
M  V30 33 1 11 31
M  V30 34 1 12 32
M  V30 35 1 12 33
M  V30 36 1 13 34
M  V30 37 1 14 35
M  V30 38 1 15 36
M  V30 39 1 15 37
M  V30 40 1 16 38
M  V30 41 1 17 39
M  V30 42 1 18 40
M  V30 43 1 19 41
M  V30 44 1 21 42
M  V30 45 1 21 43
M  V30 46 1 22 44
M  V30 47 1 22 45
M  V30 48 1 23 46
M  V30 49 1 23 47
M  V30 50 1 23 48
M  V30 51 1 24 49
M  V30 52 1 24 50
M  V30 END BOND
M  V30 END CTAB
M  END
>  <level_0>
5271

>  <index>
5271

>  <NO.>
5272

>  <Name>
clemastinum

>  <SMILES>
CN1CCCC1CCOC(C)(c1ccccc1)c1ccc(Cl)cc1

>  <logBB>


>  <Class>
1

>  <MW>
343.17

>  <nHBAcc>
2

>  <nHBDon>
0

>  <SLogP>
5.1

>  <TopoPSA>
12.47

>  <MMFF94 Energy>
77.346

$$$$
CNC(=O)C(NC(=O)C(CC(C)C)C(O)C(=O)NO)C(C)(C)C
Actelion Java MolfileCreator 2.0

  0  0  0  0  0  0              0 V3000
M  V30 BEGIN CTAB
M  V30 COUNTS 52 51 0 0 0
M  V30 BEGIN ATOM
M  V30 1 O 1.632 -1.632 2.8768 0
M  V30 2 C 1.5914 -1.3728 1.6785 0
M  V30 3 N 2.5808 -0.6454 1.042 0
M  V30 4 C 0.4135 -1.7503 0.7406 0
M  V30 5 C 3.7428 -0.1668 1.7407 0
M  V30 6 N -0.3716 -0.5296 0.5285 0
M  V30 7 C -0.4657 -2.9573 1.1918 0
M  V30 8 C -0.0453 0.4015 -0.4219 0
M  V30 9 C -1.5025 -3.262 0.0851 0
M  V30 10 C 0.4152 -4.2123 1.3603 0
M  V30 11 C -1.2362 -2.7101 2.5029 0
M  V30 12 O 0.9081 0.2749 -1.1864 0
M  V30 13 C -0.9988 1.5814 -0.4926 0
M  V30 14 C -2.3125 1.1374 -1.1556 0
M  V30 15 C -0.3774 2.7888 -1.2277 0
M  V30 16 O -3.1714 0.6489 -0.1026 0
M  V30 17 C -2.278 0.0547 -2.2562 0
M  V30 18 C 0.8658 3.4041 -0.5455 0
M  V30 19 O -3.21 -0.7512 -2.3662 0
M  V30 20 N -1.236 0.0491 -3.14 0
M  V30 21 C 1.4235 4.5324 -1.4185 0
M  V30 22 C 0.5655 3.9398 0.8551 0
M  V30 23 O -1.2891 -0.933 -4.1563 0
M  V30 24 H 2.4207 -0.3549 0.0783 0
M  V30 25 H 0.8676 -2.0178 -0.2243 0
M  V30 26 H 4.124 -0.9395 2.4135 0
M  V30 27 H 3.4625 0.716 2.3211 0
M  V30 28 H 4.5063 0.0998 1.0066 0
M  V30 29 H -1.1419 -0.3311 1.1601 0
M  V30 30 H -2.2076 -2.4341 -0.0454 0
M  V30 31 H -2.0905 -4.1546 0.328 0
M  V30 32 H -1.0125 -3.4411 -0.8785 0
M  V30 33 H -0.1944 -5.096 1.5815 0
M  V30 34 H 1.1313 -4.1016 2.1805 0
M  V30 35 H 0.9816 -4.4225 0.4462 0
M  V30 36 H -1.852 -3.5807 2.7595 0
M  V30 37 H -1.9135 -1.854 2.4252 0
M  V30 38 H -0.5692 -2.5354 3.3508 0
M  V30 39 H -1.2207 1.8876 0.5373 0
M  V30 40 H -2.832 2.0027 -1.5835 0
M  V30 41 H -0.1074 2.5046 -2.2515 0
M  V30 42 H -1.1412 3.5727 -1.3219 0
M  V30 43 H -3.8916 0.1564 -0.551 0
M  V30 44 H 1.6491 2.6427 -0.4562 0
M  V30 45 H -0.3318 0.494 -2.9959 0
M  V30 46 H 1.6857 4.1603 -2.4145 0
M  V30 47 H 0.6938 5.3405 -1.5385 0
M  V30 48 H 2.3297 4.9574 -0.9738 0
M  V30 49 H 0.3144 3.1301 1.5465 0
M  V30 50 H -0.2686 4.6492 0.8391 0
M  V30 51 H 1.4388 4.4554 1.2693 0
M  V30 52 H -2.0952 -1.4425 -3.9205 0
M  V30 END ATOM
M  V30 BEGIN BOND
M  V30 1 2 1 2
M  V30 2 1 2 3
M  V30 3 1 2 4
M  V30 4 1 3 5
M  V30 5 1 4 6
M  V30 6 1 4 7
M  V30 7 1 6 8
M  V30 8 1 7 9
M  V30 9 1 7 10
M  V30 10 1 7 11
M  V30 11 2 8 12
M  V30 12 1 8 13
M  V30 13 1 13 14
M  V30 14 1 13 15
M  V30 15 1 14 16
M  V30 16 1 14 17
M  V30 17 1 15 18
M  V30 18 2 17 19
M  V30 19 1 17 20
M  V30 20 1 18 21
M  V30 21 1 18 22
M  V30 22 1 20 23
M  V30 23 1 3 24
M  V30 24 1 4 25
M  V30 25 1 5 26
M  V30 26 1 5 27
M  V30 27 1 5 28
M  V30 28 1 6 29
M  V30 29 1 9 30
M  V30 30 1 9 31
M  V30 31 1 9 32
M  V30 32 1 10 33
M  V30 33 1 10 34
M  V30 34 1 10 35
M  V30 35 1 11 36
M  V30 36 1 11 37
M  V30 37 1 11 38
M  V30 38 1 13 39
M  V30 39 1 14 40
M  V30 40 1 15 41
M  V30 41 1 15 42
M  V30 42 1 16 43
M  V30 43 1 18 44
M  V30 44 1 20 45
M  V30 45 1 21 46
M  V30 46 1 21 47
M  V30 47 1 21 48
M  V30 48 1 22 49
M  V30 49 1 22 50
M  V30 50 1 22 51
M  V30 51 1 23 52
M  V30 END BOND
M  V30 END CTAB
M  END
>  <level_0>
5277

>  <index>
5277

>  <NO.>
5278

>  <Name>
marimastat

>  <SMILES>
CNC(=O)C(NC(=O)C(CC(C)C)C(O)C(=O)NO)C(C)(C)C

>  <logBB>


>  <Class>
-1

>  <MW>
331.21

>  <nHBAcc>
5

>  <nHBDon>
5

>  <SLogP>
-0.21

>  <TopoPSA>
127.76

>  <MMFF94 Energy>
47.079

$$$$
CNC(CC(C)C)C(=O)NC1C(=O)NC(CC(N)=O)C(=O)NC2C(=O)NC3C(=O)CC(C(=O)NC(C(=O)O)c4cc(O)cc(O)c4-c4cc3ccc4O)C(O)c3ccc(c(Cl)c3)Oc3cc2cc(c3OC2OC(CO)C(O)C(O)C2OC2CC(C)(N)C(O)C(C)O2)Oc2ccc(cc2Cl)C1O
Actelion Java MolfileCreator 2.0

  0  0  0  0  0  0              0 V3000
M  V30 BEGIN CTAB
M  V30 COUNTS 177 186 0 0 0
M  V30 BEGIN ATOM
M  V30 1 Cl 0.4833 -5.0841 1.8538 0
M  V30 2 C -0.8753 -4.2319 1.2166 0
M  V30 3 C -0.7931 -3.5285 0.0137 0
M  V30 4 C -2.0536 -4.1836 1.9648 0
M  V30 5 O 0.3997 -3.4616 -0.6666 0
M  V30 6 C -1.9091 -2.8534 -0.4872 0
M  V30 7 C -3.1611 -3.4424 1.5106 0
M  V30 8 C 1.0562 -2.2413 -0.6497 0
M  V30 9 C -3.0837 -2.805 0.2628 0
M  V30 10 C -4.3813 -3.3065 2.4015 0
M  V30 11 C 1.9796 -1.9884 -1.6698 0
M  V30 12 C 0.836 -1.2706 0.3421 0
M  V30 13 O -5.532 -2.9476 1.6326 0
M  V30 14 C -4.1608 -2.3138 3.5718 0
M  V30 15 O 2.1998 -2.8919 -2.6796 0
M  V30 16 C 2.6193 -0.7471 -1.7256 0
M  V30 17 C 1.4349 -0.0029 0.2839 0
M  V30 18 N -5.2579 -2.3834 4.5453 0
M  V30 19 C -4.0888 -0.8397 3.1217 0
M  V30 20 C 2.9328 -4.0432 -2.235 0
M  V30 21 O 3.5181 -0.5285 -2.7541 0
M  V30 22 C 2.3767 0.2189 -0.7328 0
M  V30 23 C 1.0991 1.0692 1.3198 0
M  V30 24 C -5.3596 -3.4165 5.4431 0
M  V30 25 O -5.0519 -0.0817 3.2566 0
M  V30 26 N -2.8804 -0.4113 2.6171 0
M  V30 27 O 2.4107 -5.2382 -2.8543 0
M  V30 28 C 4.4614 -3.9131 -2.4888 0
M  V30 29 C 3.4429 0.7048 -3.3616 0
M  V30 30 N -0.2189 0.93 1.9631 0
M  V30 31 C 1.199 2.5439 0.8489 0
M  V30 32 O -4.5656 -4.3554 5.4446 0
M  V30 33 C -6.551 -3.3129 6.4183 0
M  V30 34 C -2.6999 0.9538 2.0987 0
M  V30 35 C 2.5975 -5.2334 -4.2794 0
M  V30 36 O 5.2447 -4.9484 -1.8475 0
M  V30 37 C 4.7776 -4.0161 -3.9903 0
M  V30 38 C 4.51 1.5988 -3.2648 0
M  V30 39 C 2.2967 1.0593 -4.0775 0
M  V30 40 C -1.4062 0.9696 1.2547 0
M  V30 41 O 1.6803 3.4257 1.5603 0
M  V30 42 N 0.5794 2.8095 -0.3498 0
M  V30 43 N -7.3124 -4.5823 6.4057 0
M  V30 44 C -6.0323 -3.0731 7.8478 0
M  V30 45 C -2.7034 2.0026 3.2144 0
M  V30 46 C 4.0985 -5.2453 -4.6122 0
M  V30 47 C 1.8725 -6.4648 -4.8332 0
M  V30 48 C 5.0364 -5.0887 -0.4426 0
M  V30 49 O 4.3746 -2.8429 -4.7051 0
M  V30 50 Cl 5.9701 1.1719 -2.4495 0
M  V30 51 C 4.3786 2.8926 -3.7778 0
M  V30 52 C 2.1703 2.352 -4.5896 0
M  V30 53 O -1.4349 0.9224 0.0253 0
M  V30 54 C 0.6168 4.1129 -0.9905 0
M  V30 55 C -8.0379 -4.786 5.1592 0
M  V30 56 C -5.2724 -1.7441 8.0503 0
M  V30 57 C -2.5632 3.4078 2.6767 0
M  V30 58 O 4.3189 -5.2126 -6.0297 0
M  V30 59 O 2.4458 -7.6643 -4.3138 0
M  V30 60 O 4.991 -3.8171 0.202 0
M  V30 61 C 6.1905 -5.922 0.1125 0
M  V30 62 C 3.1809 3.303 -4.3906 0
M  V30 63 C 2.041 4.3649 -1.5987 0
M  V30 64 C -0.4954 4.2174 -2.018 0
M  V30 65 C -6.1499 -0.5203 7.7836 0
M  V30 66 C -4.721 -1.679 9.4778 0
M  V30 67 O -2.408 3.6929 1.4974 0
M  V30 68 N -2.6055 4.3796 3.6325 0
M  V30 69 C 4.722 -3.9311 1.6063 0
M  V30 70 C 6.1283 -6.0645 1.646 0
M  V30 71 C 2.9942 4.7472 -4.8003 0
M  V30 72 O 3.0008 3.6472 -1.2859 0
M  V30 73 C 2.3342 5.6145 -2.4494 0
M  V30 74 C -1.2386 5.4023 -2.1062 0
M  V30 75 C -0.7258 3.2152 -2.968 0
M  V30 76 C 5.8979 -4.6604 2.2869 0
M  V30 77 C 4.5239 -2.5188 2.1459 0
M  V30 78 N 5.06 -7.02 2.0091 0
M  V30 79 C 7.4462 -6.6854 2.1452 0
M  V30 80 O 2.5629 4.7109 -6.1674 0
M  V30 81 C 1.9698 5.5792 -3.9495 0
M  V30 82 C -1.9585 5.7273 -3.2699 0
M  V30 83 C -1.5718 3.4489 -4.0477 0
M  V30 84 O 7.0835 -3.8623 2.163 0
M  V30 85 C 1.9295 6.991 -4.5868 0
M  V30 86 C -2.3826 7.129 -3.5083 0
M  V30 87 C -2.1356 4.7086 -4.2238 0
M  V30 88 O 2.7803 7.3376 -5.4137 0
M  V30 89 N 0.9358 7.8915 -4.3494 0
M  V30 90 C -3.739 7.4427 -3.7494 0
M  V30 91 C -1.4286 8.1932 -3.5826 0
M  V30 92 O -2.8341 4.8724 -5.3882 0
M  V30 93 C 0.0397 8.0117 -3.2131 0
M  V30 94 O -4.7394 6.5081 -3.6756 0
M  V30 95 C -4.1523 8.7219 -4.1148 0
M  V30 96 C -1.8651 9.4738 -3.9863 0
M  V30 97 C 0.5588 9.1324 -2.2919 0
M  V30 98 C -3.2072 9.724 -4.2445 0
M  V30 99 O 1.094 10.1747 -2.6366 0
M  V30 100 O 0.3496 8.8745 -0.9815 0
M  V30 101 O -3.5545 10.9881 -4.6155 0
M  V30 102 H -2.1055 -4.7098 2.9176 0
M  V30 103 H -1.8509 -2.3267 -1.4374 0
M  V30 104 H -3.9327 -2.2418 -0.1245 0
M  V30 105 H -4.5985 -4.3062 2.7978 0
M  V30 106 H 0.1595 -1.4837 1.1625 0
M  V30 107 H -6.2832 -2.92 2.251 0
M  V30 108 H -3.2341 -2.552 4.1092 0
M  V30 109 H -5.9004 -1.5941 4.5733 0
M  V30 110 H 2.7572 -4.2062 -1.1691 0
M  V30 111 H 2.9235 1.1594 -0.7683 0
M  V30 112 H 1.8355 0.9512 2.1258 0
M  V30 113 H -2.1587 -1.0946 2.4167 0
M  V30 114 H 4.8154 -2.9394 -2.1309 0
M  V30 115 H -0.2259 0.9687 2.9716 0
M  V30 116 H -7.2197 -2.4965 6.1261 0
M  V30 117 H -3.5339 1.1553 1.4136 0
M  V30 118 H 2.1084 -4.3538 -4.7167 0
M  V30 119 H 5.8611 -4.1033 -4.1382 0
M  V30 120 H 1.4956 0.3382 -4.215 0
M  V30 121 H -0.0526 2.0918 -0.7031 0
M  V30 122 H -6.6481 -5.351 6.5354 0
M  V30 123 H -6.8797 -3.1047 8.5467 0
M  V30 124 H -5.3656 -3.8988 8.1335 0
M  V30 125 H -1.8999 1.8248 3.938 0
M  V30 126 H -3.6428 1.9599 3.7776 0
M  V30 127 H 4.5776 -6.1448 -4.2066 0
M  V30 128 H 0.8177 -6.4538 -4.5385 0
M  V30 129 H 1.9246 -6.5046 -5.9249 0
M  V30 130 H 4.0914 -5.6226 -0.2896 0
M  V30 131 H 4.4606 -3.0803 -5.6504 0
M  V30 132 H 5.194 3.5996 -3.644 0
M  V30 133 H 1.2705 2.6251 -5.1375 0
M  V30 134 H 0.4783 4.867 -0.2057 0
M  V30 135 H -7.3661 -4.866 4.299 0
M  V30 136 H -8.752 -3.9756 4.981 0
M  V30 137 H -8.609 -5.7175 5.222 0
M  V30 138 H -4.4159 -1.7089 7.3666 0
M  V30 139 H 4.2133 -6.1297 -6.3457 0
M  V30 140 H 2.4046 -7.5694 -3.3421 0
M  V30 141 H 7.1346 -5.4351 -0.1699 0
M  V30 142 H 6.2139 -6.9035 -0.3794 0
M  V30 143 H -6.4526 -0.4648 6.7342 0
M  V30 144 H -7.0551 -0.5391 8.3999 0
M  V30 145 H -5.6066 0.4033 8.0108 0
M  V30 146 H -4.0552 -2.5253 9.6769 0
M  V30 147 H -5.5285 -1.7004 10.2177 0
M  V30 148 H -4.1451 -0.7602 9.6312 0
M  V30 149 H -2.5103 5.342 3.333 0
M  V30 150 H -2.756 4.195 4.6147 0
M  V30 151 H 3.7845 -4.4814 1.7472 0
M  V30 152 H 3.9759 5.2394 -4.7917 0
M  V30 153 H 1.8986 6.4603 -1.9153 0
M  V30 154 H 3.415 5.8005 -2.3679 0
M  V30 155 H -1.1466 6.1421 -1.309 0
M  V30 156 H -0.2189 2.2549 -2.9041 0
M  V30 157 H 5.7023 -4.7655 3.3606 0
M  V30 158 H 3.6613 -2.0498 1.6615 0
M  V30 159 H 5.384 -1.8772 1.9278 0
M  V30 160 H 4.3514 -2.5275 3.2262 0
M  V30 161 H 5.1043 -7.2285 3.0078 0
M  V30 162 H 4.128 -6.6507 1.8351 0
M  V30 163 H 7.4579 -6.7686 3.2383 0
M  V30 164 H 8.3142 -6.0856 1.8497 0
M  V30 165 H 7.5951 -7.6901 1.7314 0
M  V30 166 H 2.7718 5.5945 -6.5333 0
M  V30 167 H 0.9756 5.1588 -4.1055 0
M  V30 168 H -1.7304 2.6733 -4.7932 0
M  V30 169 H 7.0924 -3.5047 1.2533 0
M  V30 170 H 1.0395 8.7323 -4.9095 0
M  V30 171 H -3.1346 5.7926 -5.4784 0
M  V30 172 H 0.1844 7.1198 -2.6328 0
M  V30 173 H -4.4032 5.6909 -3.2641 0
M  V30 174 H -5.2052 8.908 -4.3021 0
M  V30 175 H -1.1626 10.3 -4.092 0
M  V30 176 H 0.6938 9.6731 -0.5241 0
M  V30 177 H -4.5123 11.0164 -4.7803 0
M  V30 END ATOM
M  V30 BEGIN BOND
M  V30 1 1 1 2
M  V30 2 2 2 3
M  V30 3 1 2 4
M  V30 4 1 3 5
M  V30 5 1 3 6
M  V30 6 2 4 7
M  V30 7 1 5 8
M  V30 8 2 6 9
M  V30 9 1 7 10
M  V30 10 2 8 11
M  V30 11 1 8 12
M  V30 12 1 10 13
M  V30 13 1 10 14
M  V30 14 1 11 15
M  V30 15 1 11 16
M  V30 16 2 12 17
M  V30 17 1 14 18
M  V30 18 1 14 19
M  V30 19 1 15 20
M  V30 20 1 16 21
M  V30 21 2 16 22
M  V30 22 1 17 23
M  V30 23 1 18 24
M  V30 24 2 19 25
M  V30 25 1 19 26
M  V30 26 1 20 27
M  V30 27 1 20 28
M  V30 28 1 21 29
M  V30 29 1 23 30
M  V30 30 1 23 31
M  V30 31 2 24 32
M  V30 32 1 24 33
M  V30 33 1 26 34
M  V30 34 1 27 35
M  V30 35 1 28 36
M  V30 36 1 28 37
M  V30 37 2 29 38
M  V30 38 1 29 39
M  V30 39 1 30 40
M  V30 40 2 31 41
M  V30 41 1 31 42
M  V30 42 1 33 43
M  V30 43 1 33 44
M  V30 44 1 34 45
M  V30 45 1 35 46
M  V30 46 1 35 47
M  V30 47 1 36 48
M  V30 48 1 37 49
M  V30 49 1 38 50
M  V30 50 1 38 51
M  V30 51 2 39 52
M  V30 52 2 40 53
M  V30 53 1 42 54
M  V30 54 1 43 55
M  V30 55 1 44 56
M  V30 56 1 45 57
M  V30 57 1 46 58
M  V30 58 1 47 59
M  V30 59 1 48 60
M  V30 60 1 48 61
M  V30 61 2 51 62
M  V30 62 1 54 63
M  V30 63 1 54 64
M  V30 64 1 56 65
M  V30 65 1 56 66
M  V30 66 2 57 67
M  V30 67 1 57 68
M  V30 68 1 60 69
M  V30 69 1 61 70
M  V30 70 1 62 71
M  V30 71 2 63 72
M  V30 72 1 63 73
M  V30 73 2 64 74
M  V30 74 1 64 75
M  V30 75 1 69 76
M  V30 76 1 69 77
M  V30 77 1 70 78
M  V30 78 1 70 79
M  V30 79 1 71 80
M  V30 80 1 71 81
M  V30 81 1 74 82
M  V30 82 2 75 83
M  V30 83 1 76 84
M  V30 84 1 81 85
M  V30 85 1 82 86
M  V30 86 2 82 87
M  V30 87 2 85 88
M  V30 88 1 85 89
M  V30 89 2 86 90
M  V30 90 1 86 91
M  V30 91 1 87 92
M  V30 92 1 89 93
M  V30 93 1 90 94
M  V30 94 1 90 95
M  V30 95 2 91 96
M  V30 96 1 93 97
M  V30 97 2 95 98
M  V30 98 2 97 99
M  V30 99 1 97 100
M  V30 100 1 98 101
M  V30 101 1 7 9
M  V30 102 1 17 22
M  V30 103 1 34 40
M  V30 104 1 37 46
M  V30 105 1 52 62
M  V30 106 1 70 76
M  V30 107 1 73 81
M  V30 108 1 83 87
M  V30 109 1 91 93
M  V30 110 1 96 98
M  V30 111 1 4 102
M  V30 112 1 6 103
M  V30 113 1 9 104
M  V30 114 1 10 105
M  V30 115 1 12 106
M  V30 116 1 13 107
M  V30 117 1 14 108
M  V30 118 1 18 109
M  V30 119 1 20 110
M  V30 120 1 22 111
M  V30 121 1 23 112
M  V30 122 1 26 113
M  V30 123 1 28 114
M  V30 124 1 30 115
M  V30 125 1 33 116
M  V30 126 1 34 117
M  V30 127 1 35 118
M  V30 128 1 37 119
M  V30 129 1 39 120
M  V30 130 1 42 121
M  V30 131 1 43 122
M  V30 132 1 44 123
M  V30 133 1 44 124
M  V30 134 1 45 125
M  V30 135 1 45 126
M  V30 136 1 46 127
M  V30 137 1 47 128
M  V30 138 1 47 129
M  V30 139 1 48 130
M  V30 140 1 49 131
M  V30 141 1 51 132
M  V30 142 1 52 133
M  V30 143 1 54 134
M  V30 144 1 55 135
M  V30 145 1 55 136
M  V30 146 1 55 137
M  V30 147 1 56 138
M  V30 148 1 58 139
M  V30 149 1 59 140
M  V30 150 1 61 141
M  V30 151 1 61 142
M  V30 152 1 65 143
M  V30 153 1 65 144
M  V30 154 1 65 145
M  V30 155 1 66 146
M  V30 156 1 66 147
M  V30 157 1 66 148
M  V30 158 1 68 149
M  V30 159 1 68 150
M  V30 160 1 69 151
M  V30 161 1 71 152
M  V30 162 1 73 153
M  V30 163 1 73 154
M  V30 164 1 74 155
M  V30 165 1 75 156
M  V30 166 1 76 157
M  V30 167 1 77 158
M  V30 168 1 77 159
M  V30 169 1 77 160
M  V30 170 1 78 161
M  V30 171 1 78 162
M  V30 172 1 79 163
M  V30 173 1 79 164
M  V30 174 1 79 165
M  V30 175 1 80 166
M  V30 176 1 81 167
M  V30 177 1 83 168
M  V30 178 1 84 169
M  V30 179 1 89 170
M  V30 180 1 92 171
M  V30 181 1 93 172
M  V30 182 1 94 173
M  V30 183 1 95 174
M  V30 184 1 96 175
M  V30 185 1 100 176
M  V30 186 1 101 177
M  V30 END BOND
M  V30 END CTAB
M  END
>  <level_0>
5279

>  <index>
5279

>  <NO.>
5280

>  <Name>
vancomycin hydrochloride

>  <SMILES>
CNC(CC(C)C)C(=O)NC1C(=O)NC(CC(N)=O)C(=O)NC2C(=O)NC3C(=O)CC(C(=O)NC(C(=O)O)c4cc(O)cc(O)c4-c4cc3ccc4O)C(O)c3ccc(c(Cl)c3)Oc3cc2cc(c3OC2OC(CO)C(O)C(O)C2OC2CC(C)(N)C(O)C(C)O2)Oc2ccc(cc2Cl)C1O

>  <logBB>


>  <Class>
-1

>  <MW>
1446.43

>  <nHBAcc>
25

>  <nHBDon>
18

>  <SLogP>
1.2

>  <TopoPSA>
518.46

>  <MMFF94 Energy>
375.94

$$$$
CNc1ccc(C(=O)CC(O)CCC(C)C2OC(=O)CC(O)CC(=O)CC(O)CC(O)CC(O)CC(O)CC3(O)CC(O)C(C(=O)OC)C(O3)C(OC3O[C@H](C)[C@@H](O)[C@H](N)[C@@H]3O)C/C=C/C=C/C=C/C=C\C=C/C=C/C=C/C2C)cc1
Actelion Java MolfileCreator 2.0

  0  0  0  0  0  0              0 V3000
M  V30 BEGIN CTAB
M  V30 COUNTS 169 172 0 0 0
M  V30 BEGIN ATOM
M  V30 1 O -2.2131 1.1851 6.6508 0
M  V30 2 C -1.928 1.1931 5.4545 0
M  V30 3 O -2.8464 1.5877 4.5412 0
M  V30 4 C -0.5384 0.8766 4.9638 0
M  V30 5 C -2.7747 1.3457 3.1013 0
M  V30 6 C 0.3288 0.2536 6.0658 0
M  V30 7 C -4.2398 1.0327 2.662 0
M  V30 8 C -1.9798 2.4941 2.4062 0
M  V30 9 O 0.5038 1.193 7.1337 0
M  V30 10 C 1.7304 -0.0868 5.56 0
M  V30 11 C -4.3193 0.2772 1.3527 0
M  V30 12 C -5.178 2.2406 2.6332 0
M  V30 13 C -2.3455 3.9152 2.8972 0
M  V30 14 C -1.9689 2.3887 0.8807 0
M  V30 15 C 1.7019 -1.0945 4.4331 0
M  V30 16 C -4.3375 -1.0529 1.1697 0
M  V30 17 C -1.3697 4.9908 2.4037 0
M  V30 18 O 0.9864 -2.0968 4.499 0
M  V30 19 C 2.6298 -0.8722 3.2536 0
M  V30 20 C -4.314 -2.0691 2.1999 0
M  V30 21 C -1.5268 6.3427 3.1135 0
M  V30 22 C 2.2705 0.3772 2.4464 0
M  V30 23 C -4.1665 -3.3887 1.9952 0
M  V30 24 O -0.4916 7.1899 2.605 0
M  V30 25 C -2.888 7.0004 2.8621 0
M  V30 26 O 0.9515 0.2331 1.9282 0
M  V30 27 C 3.2905 0.6895 1.3371 0
M  V30 28 C -3.9204 -4.0471 0.7306 0
M  V30 29 C -3.0296 8.2955 3.6446 0
M  V30 30 C 3.6004 -0.4368 0.3408 0
M  V30 31 C -2.7883 -3.971 0.0121 0
M  V30 32 O -2.0688 8.8188 4.2092 0
M  V30 33 C -4.3677 8.9561 3.707 0
M  V30 34 O 4.6348 -0.0093 -0.5481 0
M  V30 35 C 2.4332 -1.0499 -0.4453 0
M  V30 36 C -1.5836 -3.2626 0.3875 0
M  V30 37 C -5.453 8.5266 2.94 0
M  V30 38 C -4.5349 10.049 4.5615 0
M  V30 39 C 1.5694 -0.1786 -1.375 0
M  V30 40 C -0.7474 -3.5712 1.3923 0
M  V30 41 C -6.6893 9.1817 3.0375 0
M  V30 42 C -5.7738 10.6943 4.6502 0
M  V30 43 O 1.0653 0.9435 -0.6462 0
M  V30 44 C 2.2855 0.2702 -2.6548 0
M  V30 45 C -0.8272 -4.6867 2.3133 0
M  V30 46 C -6.8734 10.2733 3.8925 0
M  V30 47 C 1.3599 0.8518 -3.7371 0
M  V30 48 C -0.8566 -6.0 2.0288 0
M  V30 49 N -8.0712 10.9458 4.02 0
M  V30 50 O 2.1737 1.3435 -4.8044 0
M  V30 51 C 0.2513 -0.0588 -4.3039 0
M  V30 52 C -0.823 -6.6175 0.7194 0
M  V30 53 C -9.274 10.6104 3.2956 0
M  V30 54 C 0.7088 -1.3713 -4.975 0
M  V30 55 C 0.1676 -6.5439 -0.183 0
M  V30 56 O 1.1846 -2.2385 -3.9509 0
M  V30 57 O 1.7515 -1.0549 -5.8893 0
M  V30 58 C -0.4864 -2.031 -5.6884 0
M  V30 59 C 1.4368 -5.8925 0.0315 0
M  V30 60 C 1.6383 -3.5322 -4.4124 0
M  V30 61 C -0.1079 -3.4204 -6.2037 0
M  V30 62 C 1.9746 -4.9595 -0.7673 0
M  V30 63 C 2.3057 -4.2546 -3.2081 0
M  V30 64 C 0.458 -4.2655 -5.0509 0
M  V30 65 O 0.8574 -3.224 -7.2459 0
M  V30 66 C 1.3509 -4.3535 -1.9984 0
M  V30 67 O 3.4339 -3.4395 -2.8351 0
M  V30 68 C 0.8526 -5.6302 -5.5585 0
M  V30 69 C 4.6733 -4.1322 -2.8002 0
M  V30 70 O 1.2628 -5.8513 -6.6904 0
M  V30 71 O 0.6851 -6.5659 -4.586 0
M  V30 72 O 5.1506 -4.4471 -4.1134 0
M  V30 73 C 5.7085 -3.2879 -2.0226 0 CFG=1
M  V30 74 C 1.0589 -7.89 -4.9745 0
M  V30 75 C 5.4653 -3.2901 -4.9074 0 CFG=1
M  V30 76 O 6.8959 -4.0571 -1.7492 0
M  V30 77 C 6.0774 -2.0315 -2.8316 0 CFG=2
M  V30 78 C 6.5484 -2.4306 -4.2403 0 CFG=2
M  V30 79 C 5.9108 -3.7901 -6.2772 0
M  V30 80 N 7.1308 -1.2152 -2.1761 0
M  V30 81 O 6.8168 -1.2482 -4.9967 0
M  V30 82 H -0.084 1.8174 4.6385 0
M  V30 83 H -0.6022 0.1712 4.1364 0
M  V30 84 H -2.2181 0.4145 2.9441 0
M  V30 85 H -0.1539 -0.6395 6.48 0
M  V30 86 H -4.6602 0.392 3.4488 0
M  V30 87 H -0.9359 2.35 2.709 0
M  V30 88 H -0.3832 1.322 7.5336 0
M  V30 89 H 2.2481 0.8261 5.249 0
M  V30 90 H 2.3374 -0.5068 6.3709 0
M  V30 91 H -4.3539 0.8873 0.4514 0
M  V30 92 H -4.9653 2.9082 1.793 0
M  V30 93 H -5.1153 2.8135 3.5639 0
M  V30 94 H -6.2185 1.9128 2.5225 0
M  V30 95 H -3.3513 4.1797 2.5653 0
M  V30 96 H -2.351 3.9356 3.9927 0
M  V30 97 H -1.176 3.01 0.4512 0
M  V30 98 H -2.9151 2.7206 0.4448 0
M  V30 99 H -1.7678 1.3617 0.5592 0
M  V30 100 H -4.3758 -1.4135 0.1427 0
M  V30 101 H -0.3374 4.6456 2.5475 0
M  V30 102 H -1.4837 5.1388 1.3226 0
M  V30 103 H 3.6548 -0.8168 3.6356 0
M  V30 104 H 2.5541 -1.7682 2.6268 0
M  V30 105 H -4.4531 -1.7457 3.2281 0
M  V30 106 H -1.3498 6.2132 4.188 0
M  V30 107 H 2.236 1.2519 3.1038 0
M  V30 108 H -4.2236 -4.0587 2.8513 0
M  V30 109 H -0.5252 8.0064 3.1485 0
M  V30 110 H -2.9955 7.2397 1.7982 0
M  V30 111 H -3.6882 6.3247 3.178 0
M  V30 112 H 0.9116 0.684 1.0552 0
M  V30 113 H 4.2369 0.9799 1.814 0
M  V30 114 H 2.9739 1.5837 0.7869 0
M  V30 115 H -4.7366 -4.6656 0.3649 0
M  V30 116 H 4.0554 -1.2585 0.9064 0
M  V30 117 H -2.7377 -4.4849 -0.9442 0
M  V30 118 H 4.4056 0.8793 -0.8737 0
M  V30 119 H 1.761 -1.5273 0.2767 0
M  V30 120 H 2.8439 -1.8619 -1.0496 0
M  V30 121 H -1.3516 -2.3944 -0.2246 0
M  V30 122 H -5.3722 7.692 2.2507 0
M  V30 123 H -3.7054 10.4088 5.1673 0
M  V30 124 H 0.7007 -0.7881 -1.6446 0
M  V30 125 H 0.0874 -2.8998 1.5894 0
M  V30 126 H -7.5094 8.8184 2.4244 0
M  V30 127 H -5.8704 11.5408 5.3263 0
M  V30 128 H 0.4896 1.4526 -1.2454 0
M  V30 129 H 2.8707 -0.551 -3.0817 0
M  V30 130 H 3.0114 1.0542 -2.4098 0
M  V30 131 H -0.8207 -4.3875 3.3616 0
M  V30 132 H 0.8676 1.7394 -3.3239 0
M  V30 133 H -0.9465 -6.7 2.8574 0
M  V30 134 H -8.1177 11.7269 4.6639 0
M  V30 135 H 2.4246 0.5613 -5.3444 0
M  V30 136 H -0.2773 0.5346 -5.0627 0
M  V30 137 H -0.4688 -0.2839 -3.5086 0
M  V30 138 H -1.7135 -7.1909 0.4703 0
M  V30 139 H -10.0771 11.2972 3.5811 0
M  V30 140 H -9.6065 9.5943 3.5301 0
M  V30 141 H -9.1243 10.705 2.2154 0
M  V30 142 H 0.032 -7.027 -1.1477 0
M  V30 143 H 1.6726 -1.6873 -6.6359 0
M  V30 144 H -1.3276 -2.1342 -4.9919 0
M  V30 145 H -0.8042 -1.4044 -6.5306 0
M  V30 146 H 1.9541 -6.1542 0.9539 0
M  V30 147 H 2.4254 -3.3698 -5.1574 0
M  V30 148 H -0.9827 -3.9043 -6.6527 0
M  V30 149 H 2.9107 -4.512 -0.439 0
M  V30 150 H 2.6438 -5.253 -3.5077 0
M  V30 151 H -0.3589 -4.3857 -4.3277 0
M  V30 152 H 1.0756 -4.1105 -7.6119 0
M  V30 153 H 1.0212 -3.3494 -1.7093 0
M  V30 154 H 0.4531 -4.9075 -2.2866 0
M  V30 155 H 4.5528 -5.0866 -2.2743 0
M  V30 156 H 5.2911 -2.987 -1.0549 0
M  V30 157 H 0.896 -8.5515 -4.1192 0
M  V30 158 H 0.4353 -8.2346 -5.8051 0
M  V30 159 H 2.1192 -7.9242 -5.2431 0
M  V30 160 H 4.56 -2.6909 -5.0578 0
M  V30 161 H 7.0806 -4.5952 -2.542 0
M  V30 162 H 5.1991 -1.3823 -2.9329 0
M  V30 163 H 7.485 -2.9986 -4.1753 0
M  V30 164 H 6.8041 -4.4186 -6.1923 0
M  V30 165 H 6.1268 -2.9624 -6.9591 0
M  V30 166 H 5.1295 -4.4135 -6.7258 0
M  V30 167 H 6.6873 -0.7625 -1.3665 0
M  V30 168 H 7.7984 -1.8703 -1.7554 0
M  V30 169 H 7.2455 -0.6453 -4.3522 0
M  V30 END ATOM
M  V30 BEGIN BOND
M  V30 1 2 1 2
M  V30 2 1 2 3
M  V30 3 1 2 4
M  V30 4 1 3 5
M  V30 5 1 4 6
M  V30 6 1 5 7
M  V30 7 1 5 8
M  V30 8 1 6 9
M  V30 9 1 6 10
M  V30 10 1 7 11
M  V30 11 1 7 12
M  V30 12 1 8 13
M  V30 13 1 8 14
M  V30 14 1 10 15
M  V30 15 2 11 16
M  V30 16 1 13 17
M  V30 17 2 15 18
M  V30 18 1 15 19
M  V30 19 1 16 20
M  V30 20 1 17 21
M  V30 21 1 19 22
M  V30 22 2 20 23
M  V30 23 1 21 24
M  V30 24 1 21 25
M  V30 25 1 22 26
M  V30 26 1 22 27
M  V30 27 1 23 28
M  V30 28 1 25 29
M  V30 29 1 27 30
M  V30 30 2 28 31
M  V30 31 2 29 32
M  V30 32 1 29 33
M  V30 33 1 30 34
M  V30 34 1 30 35
M  V30 35 1 31 36
M  V30 36 2 33 37
M  V30 37 1 33 38
M  V30 38 1 35 39
M  V30 39 2 36 40
M  V30 40 1 37 41
M  V30 41 2 38 42
M  V30 42 1 39 43
M  V30 43 1 39 44
M  V30 44 1 40 45
M  V30 45 2 41 46
M  V30 46 1 44 47
M  V30 47 2 45 48
M  V30 48 1 46 49
M  V30 49 1 47 50
M  V30 50 1 47 51
M  V30 51 1 48 52
M  V30 52 1 49 53
M  V30 53 1 51 54
M  V30 54 2 52 55
M  V30 55 1 54 56
M  V30 56 1 54 57
M  V30 57 1 54 58
M  V30 58 1 55 59
M  V30 59 1 56 60
M  V30 60 1 58 61
M  V30 61 2 59 62
M  V30 62 1 60 63
M  V30 63 1 60 64
M  V30 64 1 61 65
M  V30 65 1 62 66
M  V30 66 1 63 67
M  V30 67 1 64 68
M  V30 68 1 67 69
M  V30 69 2 68 70
M  V30 70 1 68 71
M  V30 71 1 69 72
M  V30 72 1 69 73
M  V30 73 1 71 74
M  V30 74 1 72 75
M  V30 75 1 73 76
M  V30 76 1 73 77
M  V30 77 1 75 78
M  V30 78 1 75 79
M  V30 79 1 77 80
M  V30 80 1 78 81
M  V30 81 1 42 46
M  V30 82 1 61 64
M  V30 83 1 63 66
M  V30 84 1 77 78
M  V30 85 1 4 82
M  V30 86 1 4 83
M  V30 87 1 5 84
M  V30 88 1 6 85
M  V30 89 1 7 86
M  V30 90 1 8 87
M  V30 91 1 9 88
M  V30 92 1 10 89
M  V30 93 1 10 90
M  V30 94 1 11 91
M  V30 95 1 12 92
M  V30 96 1 12 93
M  V30 97 1 12 94
M  V30 98 1 13 95
M  V30 99 1 13 96
M  V30 100 1 14 97
M  V30 101 1 14 98
M  V30 102 1 14 99
M  V30 103 1 16 100
M  V30 104 1 17 101
M  V30 105 1 17 102
M  V30 106 1 19 103
M  V30 107 1 19 104
M  V30 108 1 20 105
M  V30 109 1 21 106
M  V30 110 1 22 107
M  V30 111 1 23 108
M  V30 112 1 24 109
M  V30 113 1 25 110
M  V30 114 1 25 111
M  V30 115 1 26 112
M  V30 116 1 27 113
M  V30 117 1 27 114
M  V30 118 1 28 115
M  V30 119 1 30 116
M  V30 120 1 31 117
M  V30 121 1 34 118
M  V30 122 1 35 119
M  V30 123 1 35 120
M  V30 124 1 36 121
M  V30 125 1 37 122
M  V30 126 1 38 123
M  V30 127 1 39 124
M  V30 128 1 40 125
M  V30 129 1 41 126
M  V30 130 1 42 127
M  V30 131 1 43 128
M  V30 132 1 44 129
M  V30 133 1 44 130
M  V30 134 1 45 131
M  V30 135 1 47 132
M  V30 136 1 48 133
M  V30 137 1 49 134
M  V30 138 1 50 135
M  V30 139 1 51 136
M  V30 140 1 51 137
M  V30 141 1 52 138
M  V30 142 1 53 139
M  V30 143 1 53 140
M  V30 144 1 53 141
M  V30 145 1 55 142
M  V30 146 1 57 143
M  V30 147 1 58 144
M  V30 148 1 58 145
M  V30 149 1 59 146
M  V30 150 1 60 147
M  V30 151 1 61 148
M  V30 152 1 62 149
M  V30 153 1 63 150
M  V30 154 1 64 151
M  V30 155 1 65 152
M  V30 156 1 66 153
M  V30 157 1 66 154
M  V30 158 1 69 155
M  V30 159 1 73 156
M  V30 160 1 74 157
M  V30 161 1 74 158
M  V30 162 1 74 159
M  V30 163 1 75 160
M  V30 164 1 76 161
M  V30 165 1 77 162
M  V30 166 1 78 163
M  V30 167 1 79 164
M  V30 168 1 79 165
M  V30 169 1 79 166
M  V30 170 1 80 167
M  V30 171 1 80 168
M  V30 172 1 81 169
M  V30 END BOND
M  V30 BEGIN COLLECTION
M  V30 MDLV30/STEABS ATOMS=(4 73 75 77 78)
M  V30 END COLLECTION
M  V30 END CTAB
M  END
>  <level_0>
5280

>  <index>
5280

>  <NO.>
5281

>  <Name>
mepartricin

>  <SMILES>
CNc1ccc(C(=O)CC(O)CCC(C)C2OC(=O)CC(O)CC(=O)CC(O)CC(O)CC(O)CC(O)CC3(O)CC(O)C(C(=O)OC)C(O3)C(OC3O[C@H](C)[C@@H](O)[C@H](N)[C@@H]3O)C/C=C/C=C/C=C/C=C\C=C/C=C/C=C/C2C)cc1

>  <logBB>


>  <Class>
-1

>  <MW>
1140.6

>  <nHBAcc>
21

>  <nHBDon>
12

>  <SLogP>
2.83

>  <TopoPSA>
354.78

>  <MMFF94 Energy>
197.42

$$$$
COC(=O)C(Cc1ccccc1)NC(=O)C(N)CC(=O)O
Actelion Java MolfileCreator 2.0

  0  0  0  0  0  0              0 V3000
M  V30 BEGIN CTAB
M  V30 COUNTS 39 39 0 0 0
M  V30 BEGIN ATOM
M  V30 1 O 0.707 -2.4368 0.2356 0
M  V30 2 C 0.2828 -1.4139 0.7665 0
M  V30 3 O -0.1623 -1.3235 2.0491 0
M  V30 4 C 0.2153 -0.0559 0.0645 0
M  V30 5 C -0.1018 -2.5478 2.7792 0
M  V30 6 N -0.2276 -0.3132 -1.3107 0
M  V30 7 C 1.5944 0.6116 0.0673 0
M  V30 8 C -1.5542 -0.2351 -1.6765 0
M  V30 9 C 2.0503 1.0497 1.4377 0
M  V30 10 O -2.4373 0.1479 -0.917 0
M  V30 11 C -1.8219 -0.748 -3.1067 0
M  V30 12 C 1.4863 2.1793 2.046 0
M  V30 13 C 3.0294 0.3221 2.128 0
M  V30 14 N -1.7958 -2.2317 -3.0805 0
M  V30 15 C -3.1698 -0.2577 -3.6313 0
M  V30 16 C 1.8948 2.573 3.321 0
M  V30 17 C 3.436 0.7184 3.4028 0
M  V30 18 C -3.2525 1.2395 -3.7514 0
M  V30 19 C 2.8688 1.8429 3.9989 0
M  V30 20 O -4.2856 1.8857 -3.8292 0
M  V30 21 O -2.0658 1.8643 -3.8552 0
M  V30 22 H -0.535 0.5683 0.5626 0
M  V30 23 H -0.4807 -2.3605 3.7877 0
M  V30 24 H -0.7328 -3.3072 2.3072 0
M  V30 25 H 0.9326 -2.8961 2.8571 0
M  V30 26 H 0.4218 -0.7727 -1.9387 0
M  V30 27 H 1.5806 1.4933 -0.5876 0
M  V30 28 H 2.3429 -0.062 -0.3713 0
M  V30 29 H -1.0092 -0.4095 -3.7598 0
M  V30 30 H 0.7233 2.7611 1.5328 0
M  V30 31 H 3.4823 -0.5603 1.681 0
M  V30 32 H -2.5652 -2.5613 -2.4925 0
M  V30 33 H -0.9491 -2.5531 -2.6084 0
M  V30 34 H -3.9797 -0.5776 -2.9642 0
M  V30 35 H -3.36 -0.6734 -4.6277 0
M  V30 36 H 1.4516 3.4498 3.7864 0
M  V30 37 H 4.1958 0.1491 3.9319 0
M  V30 38 H 3.1857 2.1505 4.992 0
M  V30 39 H -2.317 2.8094 -3.9442 0
M  V30 END ATOM
M  V30 BEGIN BOND
M  V30 1 2 1 2
M  V30 2 1 2 3
M  V30 3 1 2 4
M  V30 4 1 3 5
M  V30 5 1 4 6
M  V30 6 1 4 7
M  V30 7 1 6 8
M  V30 8 1 7 9
M  V30 9 2 8 10
M  V30 10 1 8 11
M  V30 11 2 9 12
M  V30 12 1 9 13
M  V30 13 1 11 14
M  V30 14 1 11 15
M  V30 15 1 12 16
M  V30 16 2 13 17
M  V30 17 1 15 18
M  V30 18 2 16 19
M  V30 19 2 18 20
M  V30 20 1 18 21
M  V30 21 1 17 19
M  V30 22 1 4 22
M  V30 23 1 5 23
M  V30 24 1 5 24
M  V30 25 1 5 25
M  V30 26 1 6 26
M  V30 27 1 7 27
M  V30 28 1 7 28
M  V30 29 1 11 29
M  V30 30 1 12 30
M  V30 31 1 13 31
M  V30 32 1 14 32
M  V30 33 1 14 33
M  V30 34 1 15 34
M  V30 35 1 15 35
M  V30 36 1 16 36
M  V30 37 1 17 37
M  V30 38 1 19 38
M  V30 39 1 21 39
M  V30 END BOND
M  V30 END CTAB
M  END
>  <level_0>
5281

>  <index>
5281

>  <NO.>
5282

>  <Name>
aspartame

>  <SMILES>
COC(=O)C(Cc1ccccc1)NC(=O)C(N)CC(=O)O

>  <logBB>


>  <Class>
-1

>  <MW>
294.12

>  <nHBAcc>
5

>  <nHBDon>
3

>  <SLogP>
-0.31

>  <TopoPSA>
118.72

>  <MMFF94 Energy>
31.768

$$$$
COC(=O)C1=C(C)NC(C)=C(C(=O)OC(C)(C)CN(C)CCC(c2ccccc2)c2ccccc2)C1c1cccc([N+](=O)[O-])c1
Actelion Java MolfileCreator 2.0

  0  0  0  0  0  0              0 V3000
M  V30 BEGIN CTAB
M  V30 COUNTS 86 89 0 0 0
M  V30 BEGIN ATOM
M  V30 1 O -5.7317 -3.4201 0.3972 0
M  V30 2 N -4.9007 -3.5589 -0.5113 0 CHG=1
M  V30 3 O -5.134 -4.1027 -1.6004 0 CHG=-1
M  V30 4 C -3.5458 -3.0438 -0.2819 0
M  V30 5 C -3.2862 -2.2528 0.8468 0
M  V30 6 C -2.5286 -3.3444 -1.1961 0
M  V30 7 C -1.9915 -1.7557 1.0705 0
M  V30 8 C -1.2429 -2.8532 -0.9758 0
M  V30 9 C -0.9773 -2.068 0.1477 0
M  V30 10 C -1.7089 -0.8641 2.2863 0 CFG=2
M  V30 11 C -1.4409 0.5703 1.8633 0
M  V30 12 C -0.5915 -1.4402 3.1554 0
M  V30 13 C -0.3136 1.2261 2.2122 0
M  V30 14 C -2.5052 1.2293 1.0873 0
M  V30 15 C 0.5247 -0.7279 3.4369 0
M  V30 16 C -0.7622 -2.8296 3.6365 0
M  V30 17 N 0.6518 0.5652 2.953 0
M  V30 18 C -0.0195 2.6654 1.8793 0
M  V30 19 O -3.5214 1.683 1.5821 0
M  V30 20 O -2.1518 1.1947 -0.2146 0
M  V30 21 C 1.6641 -1.2205 4.2929 0
M  V30 22 O 0.1124 -3.6813 3.6161 0
M  V30 23 O -2.0301 -2.9972 4.089 0
M  V30 24 C -2.961 1.813 -1.2491 0
M  V30 25 C -2.3059 -4.3154 4.5638 0
M  V30 26 C -2.2625 1.5202 -2.6242 0
M  V30 27 C -4.3582 1.1742 -1.2945 0
M  V30 28 C -3.0538 3.3288 -1.0246 0
M  V30 29 N -0.8786 2.0428 -2.7319 0
M  V30 30 C 0.1063 1.0455 -2.2651 0
M  V30 31 C -0.5849 2.4366 -4.113 0
M  V30 32 C 1.3479 1.7359 -1.6823 0
M  V30 33 C 2.2908 0.7254 -0.9783 0
M  V30 34 C 2.9474 -0.241 -1.9589 0
M  V30 35 C 3.3172 1.3695 -0.0469 0
M  V30 36 C 2.7915 -1.6264 -1.7886 0
M  V30 37 C 3.7269 0.2174 -3.0323 0
M  V30 38 C 3.7655 0.6475 1.0744 0
M  V30 39 C 3.8468 2.6494 -0.2677 0
M  V30 40 C 3.3813 -2.526 -2.6784 0
M  V30 41 C 4.3158 -0.6836 -3.9214 0
M  V30 42 C 4.6969 1.1961 1.9573 0
M  V30 43 C 4.7782 3.198 0.6175 0
M  V30 44 C 4.1403 -2.0541 -3.7463 0
M  V30 45 C 5.2006 2.4736 1.7299 0
M  V30 46 H -4.0845 -2.0142 1.5491 0
M  V30 47 H -2.7198 -3.9561 -2.0753 0
M  V30 48 H -0.4454 -3.0801 -1.6803 0
M  V30 49 H 0.032 -1.6893 0.3 0
M  V30 50 H -2.6122 -0.8308 2.9131 0
M  V30 51 H 1.506 1.0765 3.1709 0
M  V30 52 H -0.0132 3.264 2.7967 0
M  V30 53 H -0.7464 3.1124 1.1973 0
M  V30 54 H 0.9658 2.755 1.4133 0
M  V30 55 H 1.3613 -1.9974 5.0003 0
M  V30 56 H 2.4684 -1.6098 3.6608 0
M  V30 57 H 2.0721 -0.4015 4.8964 0
M  V30 58 H -3.3458 -4.3431 4.9011 0
M  V30 59 H -2.1837 -5.0457 3.7579 0
M  V30 60 H -1.6594 -4.5606 5.4122 0
M  V30 61 H -2.8888 1.9779 -3.4029 0
M  V30 62 H -2.2672 0.4403 -2.8279 0
M  V30 63 H -4.9326 1.5323 -2.1557 0
M  V30 64 H -4.9432 1.399 -0.3978 0
M  V30 65 H -4.2834 0.083 -1.3559 0
M  V30 66 H -2.0608 3.7707 -0.8889 0
M  V30 67 H -3.5455 3.8272 -1.8668 0
M  V30 68 H -3.6241 3.5689 -0.1215 0
M  V30 69 H 0.3785 0.354 -3.0726 0
M  V30 70 H -0.3203 0.4208 -1.4758 0
M  V30 71 H 0.4285 2.841 -4.2022 0
M  V30 72 H -0.6857 1.5977 -4.8111 0
M  V30 73 H -1.263 3.2355 -4.4339 0
M  V30 74 H 1.0132 2.482 -0.9503 0
M  V30 75 H 1.8735 2.2891 -2.4689 0
M  V30 76 H 1.6367 0.1385 -0.3167 0
M  V30 77 H 2.2157 -2.0183 -0.9541 0
M  V30 78 H 3.8917 1.2819 -3.1804 0
M  V30 79 H 3.3898 -0.3564 1.2628 0
M  V30 80 H 3.5453 3.2378 -1.1302 0
M  V30 81 H 3.2551 -3.5957 -2.5332 0
M  V30 82 H 4.9186 -0.3143 -4.7471 0
M  V30 83 H 5.0363 0.6218 2.8152 0
M  V30 84 H 5.1789 4.1918 0.4337 0
M  V30 85 H 4.6036 -2.7542 -4.4363 0
M  V30 86 H 5.9304 2.9012 2.4122 0
M  V30 END ATOM
M  V30 BEGIN BOND
M  V30 1 2 1 2
M  V30 2 1 2 3
M  V30 3 1 2 4
M  V30 4 2 4 5
M  V30 5 1 4 6
M  V30 6 1 5 7
M  V30 7 2 6 8
M  V30 8 2 7 9
M  V30 9 1 7 10
M  V30 10 1 10 11
M  V30 11 1 10 12
M  V30 12 2 11 13
M  V30 13 1 11 14
M  V30 14 2 12 15
M  V30 15 1 12 16
M  V30 16 1 13 17
M  V30 17 1 13 18
M  V30 18 2 14 19
M  V30 19 1 14 20
M  V30 20 1 15 21
M  V30 21 2 16 22
M  V30 22 1 16 23
M  V30 23 1 20 24
M  V30 24 1 23 25
M  V30 25 1 24 26
M  V30 26 1 24 27
M  V30 27 1 24 28
M  V30 28 1 26 29
M  V30 29 1 29 30
M  V30 30 1 29 31
M  V30 31 1 30 32
M  V30 32 1 32 33
M  V30 33 1 33 34
M  V30 34 1 33 35
M  V30 35 2 34 36
M  V30 36 1 34 37
M  V30 37 2 35 38
M  V30 38 1 35 39
M  V30 39 1 36 40
M  V30 40 2 37 41
M  V30 41 1 38 42
M  V30 42 2 39 43
M  V30 43 2 40 44
M  V30 44 2 42 45
M  V30 45 1 8 9
M  V30 46 1 15 17
M  V30 47 1 41 44
M  V30 48 1 43 45
M  V30 49 1 5 46
M  V30 50 1 6 47
M  V30 51 1 8 48
M  V30 52 1 9 49
M  V30 53 1 10 50
M  V30 54 1 17 51
M  V30 55 1 18 52
M  V30 56 1 18 53
M  V30 57 1 18 54
M  V30 58 1 21 55
M  V30 59 1 21 56
M  V30 60 1 21 57
M  V30 61 1 25 58
M  V30 62 1 25 59
M  V30 63 1 25 60
M  V30 64 1 26 61
M  V30 65 1 26 62
M  V30 66 1 27 63
M  V30 67 1 27 64
M  V30 68 1 27 65
M  V30 69 1 28 66
M  V30 70 1 28 67
M  V30 71 1 28 68
M  V30 72 1 30 69
M  V30 73 1 30 70
M  V30 74 1 31 71
M  V30 75 1 31 72
M  V30 76 1 31 73
M  V30 77 1 32 74
M  V30 78 1 32 75
M  V30 79 1 33 76
M  V30 80 1 36 77
M  V30 81 1 37 78
M  V30 82 1 38 79
M  V30 83 1 39 80
M  V30 84 1 40 81
M  V30 85 1 41 82
M  V30 86 1 42 83
M  V30 87 1 43 84
M  V30 88 1 44 85
M  V30 89 1 45 86
M  V30 END BOND
M  V30 BEGIN COLLECTION
M  V30 MDLV30/STERAC1 ATOMS=(1 10)
M  V30 END COLLECTION
M  V30 END CTAB
M  END
>  <level_0>
5283

>  <index>
5283

>  <NO.>
5284

>  <Name>
lercanidipine

>  <SMILES>
COC(=O)C1=C(C)NC(C)=C(C(=O)OC(C)(C)CN(C)CCC(c2ccccc2)c2ccccc2)C1c1cccc([N+](=O)[O-])c1

>  <logBB>


>  <Class>
-1

>  <MW>
611.3

>  <nHBAcc>
8

>  <nHBDon>
1

>  <SLogP>
6.48

>  <TopoPSA>
111.01

>  <MMFF94 Energy>
126.05

$$$$
COC1C(OC(C)=O)CC(=O)OC(C)CC=CC=CC(O)C(C)CC(CC=O)C1OC1OC(C)C(OC2CC(C)(OC(=O)CC(C)C)C(O)C(C)O2)C(N(C)C)C1O
Actelion Java MolfileCreator 2.0

  0  0  0  0  0  0              0 V3000
M  V30 BEGIN CTAB
M  V30 COUNTS 127 129 0 0 0
M  V30 BEGIN ATOM
M  V30 1 O -0.3165 -1.1876 -1.2668 0
M  V30 2 C -0.0939 -1.8745 -2.2567 0
M  V30 3 O -0.9814 -1.9363 -3.2814 0
M  V30 4 C 1.1397 -2.7298 -2.4292 0
M  V30 5 C -0.5193 -1.5399 -4.5919 0
M  V30 6 C 1.7076 -3.181 -1.0663 0
M  V30 7 C -0.8422 -0.0424 -4.7715 0
M  V30 8 C -1.2495 -2.4194 -5.602 0
M  V30 9 O 1.814 -4.6343 -1.0467 0
M  V30 10 C 3.1346 -2.6182 -0.7946 0
M  V30 11 C -0.1747 0.5875 -5.9662 0
M  V30 12 C 0.6467 -5.3161 -0.8951 0
M  V30 13 O 3.9613 -2.9178 -1.9328 0
M  V30 14 C 3.1215 -1.0824 -0.4853 0
M  V30 15 C 0.5905 1.6909 -5.9887 0
M  V30 16 O -0.4621 -4.8074 -0.8279 0
M  V30 17 C 0.9131 -6.7882 -0.841 0
M  V30 18 C 4.9051 -3.9506 -1.6763 0
M  V30 19 O 2.8794 -0.9244 0.9273 0
M  V30 20 C 4.4617 -0.3627 -0.8416 0
M  V30 21 C 0.9299 2.5447 -4.876 0
M  V30 22 C 1.5935 -0.3816 1.2531 0
M  V30 23 C 4.5909 0.0451 -2.3395 0
M  V30 24 C 4.7897 0.8357 0.0712 0
M  V30 25 C 1.6586 2.278 -3.7786 0
M  V30 26 O 1.4505 0.9263 0.7156 0
M  V30 27 C 1.5104 -0.3069 2.7887 0
M  V30 28 C 3.8395 1.3188 -2.8351 0
M  V30 29 C 5.3115 0.4431 1.4372 0
M  V30 30 C 2.3861 1.0386 -3.311 0
M  V30 31 C 0.124 1.4172 0.9302 0
M  V30 32 O 1.7504 -1.6084 3.3438 0
M  V30 33 C 0.1251 0.2512 3.2073 0
M  V30 34 C 4.6759 1.9469 -3.9693 0
M  V30 35 O 5.8023 -0.6458 1.7184 0
M  V30 36 O 2.4023 0.0205 -4.2981 0
M  V30 37 C -0.1897 1.5743 2.4355 0
M  V30 38 C 0.0215 2.7491 0.1927 0
M  V30 39 N -0.1008 0.4449 4.6741 0
M  V30 40 O -1.5914 1.8669 2.541 0
M  V30 41 C -0.5685 -0.7848 5.3181 0
M  V30 42 C 1.0443 0.9896 5.3974 0
M  V30 43 C -1.9255 2.7728 3.5881 0
M  V30 44 O -2.1123 4.0831 3.0473 0
M  V30 45 C -3.1715 2.2911 4.3351 0
M  V30 46 C -3.2355 4.1639 2.1598 0
M  V30 47 C -4.4402 2.3505 3.4627 0
M  V30 48 C -4.5509 3.789 2.8823 0
M  V30 49 C -3.2532 5.5819 1.5976 0
M  V30 50 O -4.3673 1.463 2.3069 0
M  V30 51 C -5.6989 2.0229 4.2842 0
M  V30 52 O -4.8486 4.7186 3.9337 0
M  V30 53 C -4.1858 0.1216 2.464 0
M  V30 54 O -4.1755 -0.4793 3.5275 0
M  V30 55 C -3.9585 -0.512 1.1082 0
M  V30 56 C -4.1719 -2.0338 1.1154 0
M  V30 57 C -5.6553 -2.3869 1.2468 0
M  V30 58 C -3.6024 -2.6521 -0.162 0
M  V30 59 H 1.8692 -2.1369 -2.9841 0
M  V30 60 H 0.875 -3.5995 -3.0408 0
M  V30 61 H 0.5542 -1.715 -4.7001 0
M  V30 62 H 1.0658 -2.9049 -0.2246 0
M  V30 63 H -1.9281 0.0819 -4.8755 0
M  V30 64 H -0.587 0.492 -3.8502 0
M  V30 65 H -1.0491 -3.4766 -5.3957 0
M  V30 66 H -0.9392 -2.2052 -6.6282 0
M  V30 67 H -2.3345 -2.2869 -5.527 0
M  V30 68 H 3.5323 -3.136 0.0901 0
M  V30 69 H -0.3731 0.1051 -6.922 0
M  V30 70 H 2.3171 -0.6122 -1.0441 0
M  V30 71 H 0.9406 2.0519 -6.9557 0
M  V30 72 H 1.3466 -7.1206 -1.7873 0
M  V30 73 H 1.5853 -7.013 -0.0091 0
M  V30 74 H -0.0282 -7.3211 -0.6796 0
M  V30 75 H 4.4014 -4.8829 -1.4074 0
M  V30 76 H 5.5929 -3.6496 -0.8803 0
M  V30 77 H 5.4833 -4.1185 -2.5887 0
M  V30 78 H 5.2599 -1.0988 -0.6727 0
M  V30 79 H 0.5433 3.5595 -4.9836 0
M  V30 80 H 0.8259 -1.0606 0.8753 0
M  V30 81 H 4.346 -0.8002 -2.9886 0
M  V30 82 H 5.667 0.209 -2.4968 0
M  V30 83 H 3.9117 1.4716 0.2157 0
M  V30 84 H 5.574 1.46 -0.3733 0
M  V30 85 H 1.7455 3.1021 -3.068 0
M  V30 86 H 2.3102 0.3521 3.1479 0
M  V30 87 H 3.8002 2.061 -2.0299 0
M  V30 88 H 5.2862 1.2501 2.1897 0
M  V30 89 H 1.8028 0.659 -2.4718 0
M  V30 90 H -0.5976 0.7333 0.4671 0
M  V30 91 H 2.5965 -1.903 2.9519 0
M  V30 92 H -0.634 -0.4717 2.8727 0
M  V30 93 H 4.792 1.2579 -4.8123 0
M  V30 94 H 5.6775 2.207 -3.609 0
M  V30 95 H 4.2242 2.8714 -4.3416 0
M  V30 96 H 2.6508 0.4441 -5.1369 0
M  V30 97 H 0.4228 2.3969 2.8286 0
M  V30 98 H 0.7323 3.4772 0.5985 0
M  V30 99 H -0.9846 3.1703 0.2511 0
M  V30 100 H 0.2769 2.617 -0.8638 0
M  V30 101 H -1.4738 -1.1615 4.8293 0
M  V30 102 H -0.8455 -0.5842 6.3594 0
M  V30 103 H 0.184 -1.5786 5.3171 0
M  V30 104 H 1.8779 0.2827 5.4669 0
M  V30 105 H 1.406 1.9108 4.9292 0
M  V30 106 H 0.7503 1.2593 6.4183 0
M  V30 107 H -1.1115 2.8561 4.315 0
M  V30 108 H -3.3162 2.9316 5.2148 0
M  V30 109 H -2.9964 1.2759 4.7017 0
M  V30 110 H -3.0748 3.4822 1.3163 0
M  V30 111 H -5.3768 3.8323 2.1612 0
M  V30 112 H -4.1223 5.745 0.9536 0
M  V30 113 H -2.3476 5.7606 1.007 0
M  V30 114 H -3.2491 6.3337 2.3937 0
M  V30 115 H -5.8508 2.7309 5.1053 0
M  V30 116 H -5.6493 1.0255 4.73 0
M  V30 117 H -6.5888 2.0358 3.6449 0
M  V30 118 H -4.9209 5.6056 3.5447 0
M  V30 119 H -2.9271 -0.2785 0.8202 0
M  V30 120 H -4.6328 -0.0466 0.3796 0
M  V30 121 H -3.6386 -2.4745 1.9671 0
M  V30 122 H -6.0781 -1.9915 2.1758 0
M  V30 123 H -6.236 -1.9808 0.4115 0
M  V30 124 H -5.7947 -3.4731 1.257 0
M  V30 125 H -2.5262 -2.4675 -0.2327 0
M  V30 126 H -4.0792 -2.2341 -1.0549 0
M  V30 127 H -3.7534 -3.7366 -0.1718 0
M  V30 END ATOM
M  V30 BEGIN BOND
M  V30 1 2 1 2
M  V30 2 1 2 3
M  V30 3 1 2 4
M  V30 4 1 3 5
M  V30 5 1 4 6
M  V30 6 1 5 7
M  V30 7 1 5 8
M  V30 8 1 6 9
M  V30 9 1 6 10
M  V30 10 1 7 11
M  V30 11 1 9 12
M  V30 12 1 10 13
M  V30 13 1 10 14
M  V30 14 2 11 15
M  V30 15 2 12 16
M  V30 16 1 12 17
M  V30 17 1 13 18
M  V30 18 1 14 19
M  V30 19 1 14 20
M  V30 20 1 15 21
M  V30 21 1 19 22
M  V30 22 1 20 23
M  V30 23 1 20 24
M  V30 24 2 21 25
M  V30 25 1 22 26
M  V30 26 1 22 27
M  V30 27 1 23 28
M  V30 28 1 24 29
M  V30 29 1 25 30
M  V30 30 1 26 31
M  V30 31 1 27 32
M  V30 32 1 27 33
M  V30 33 1 28 34
M  V30 34 2 29 35
M  V30 35 1 30 36
M  V30 36 1 31 37
M  V30 37 1 31 38
M  V30 38 1 33 39
M  V30 39 1 37 40
M  V30 40 1 39 41
M  V30 41 1 39 42
M  V30 42 1 40 43
M  V30 43 1 43 44
M  V30 44 1 43 45
M  V30 45 1 44 46
M  V30 46 1 45 47
M  V30 47 1 46 48
M  V30 48 1 46 49
M  V30 49 1 47 50
M  V30 50 1 47 51
M  V30 51 1 48 52
M  V30 52 1 50 53
M  V30 53 2 53 54
M  V30 54 1 53 55
M  V30 55 1 55 56
M  V30 56 1 56 57
M  V30 57 1 56 58
M  V30 58 1 28 30
M  V30 59 1 33 37
M  V30 60 1 47 48
M  V30 61 1 4 59
M  V30 62 1 4 60
M  V30 63 1 5 61
M  V30 64 1 6 62
M  V30 65 1 7 63
M  V30 66 1 7 64
M  V30 67 1 8 65
M  V30 68 1 8 66
M  V30 69 1 8 67
M  V30 70 1 10 68
M  V30 71 1 11 69
M  V30 72 1 14 70
M  V30 73 1 15 71
M  V30 74 1 17 72
M  V30 75 1 17 73
M  V30 76 1 17 74
M  V30 77 1 18 75
M  V30 78 1 18 76
M  V30 79 1 18 77
M  V30 80 1 20 78
M  V30 81 1 21 79
M  V30 82 1 22 80
M  V30 83 1 23 81
M  V30 84 1 23 82
M  V30 85 1 24 83
M  V30 86 1 24 84
M  V30 87 1 25 85
M  V30 88 1 27 86
M  V30 89 1 28 87
M  V30 90 1 29 88
M  V30 91 1 30 89
M  V30 92 1 31 90
M  V30 93 1 32 91
M  V30 94 1 33 92
M  V30 95 1 34 93
M  V30 96 1 34 94
M  V30 97 1 34 95
M  V30 98 1 36 96
M  V30 99 1 37 97
M  V30 100 1 38 98
M  V30 101 1 38 99
M  V30 102 1 38 100
M  V30 103 1 41 101
M  V30 104 1 41 102
M  V30 105 1 41 103
M  V30 106 1 42 104
M  V30 107 1 42 105
M  V30 108 1 42 106
M  V30 109 1 43 107
M  V30 110 1 45 108
M  V30 111 1 45 109
M  V30 112 1 46 110
M  V30 113 1 48 111
M  V30 114 1 49 112
M  V30 115 1 49 113
M  V30 116 1 49 114
M  V30 117 1 51 115
M  V30 118 1 51 116
M  V30 119 1 51 117
M  V30 120 1 52 118
M  V30 121 1 55 119
M  V30 122 1 55 120
M  V30 123 1 56 121
M  V30 124 1 57 122
M  V30 125 1 57 123
M  V30 126 1 57 124
M  V30 127 1 58 125
M  V30 128 1 58 126
M  V30 129 1 58 127
M  V30 END BOND
M  V30 END CTAB
M  END
>  <level_0>
5290

>  <index>
5290

>  <NO.>
5291

>  <Name>
josamycin

>  <SMILES>
COC1C(OC(C)=O)CC(=O)OC(C)CC=CC=CC(O)C(C)CC(CC=O)C1OC1OC(C)C(OC2CC(C)(OC(=O)CC(C)C)C(O)C(C)O2)C(N(C)C)C1O

>  <logBB>


>  <Class>
-1

>  <MW>
827.47

>  <nHBAcc>
16

>  <nHBDon>
3

>  <SLogP>
3.01

>  <TopoPSA>
206.05

>  <MMFF94 Energy>
176.62

$$$$
COC1CC2CCC(C)C(O)(O2)C(=O)C(=O)N2CCCCC2C(=O)OC(C(C)CC2CCC(O)C(OC)C2)CC(=O)C(C)C=C(C)C(O)C(OC)C(=O)C(C)CC(C)C=CC=CC=C1C
Actelion Java MolfileCreator 2.0

  0  0  0  0  0  0              0 V3000
M  V30 BEGIN CTAB
M  V30 COUNTS 144 147 0 0 0
M  V30 BEGIN ATOM
M  V30 1 O 0.5546 1.6645 0.3168 0
M  V30 2 C 0.5332 2.5851 1.1276 0
M  V30 3 N 1.4512 3.6369 1.1278 0
M  V30 4 C -0.5354 2.5673 2.2113 0
M  V30 5 C 2.5654 3.6032 0.168 0
M  V30 6 C 1.3323 4.8304 1.9643 0
M  V30 7 O -1.5323 3.2699 2.0742 0
M  V30 8 C -0.2113 1.6518 3.4152 0
M  V30 9 C 2.379 4.5389 -1.0441 0
M  V30 10 C 3.8957 3.9243 0.8704 0
M  V30 11 C 2.6361 5.1101 2.7047 0
M  V30 12 O -0.1853 0.2891 2.9973 0
M  V30 13 O 1.0937 2.0463 3.8712 0
M  V30 14 C -1.2175 1.7986 4.5914 0
M  V30 15 O 2.2242 5.7524 -0.964 0
M  V30 16 O 2.5815 3.9308 -2.2466 0
M  V30 17 C 3.8226 5.1752 1.7479 0
M  V30 18 C 0.2787 -0.6296 3.9867 0
M  V30 19 C -0.784 0.86 5.7371 0
M  V30 20 C -2.6687 1.4766 4.2133 0
M  V30 21 C 1.5761 2.9897 -2.6834 0
M  V30 22 C 0.2752 -2.0592 3.4131 0
M  V30 23 C -0.6023 -0.5724 5.2419 0
M  V30 24 C 2.2459 1.948 -3.6203 0
M  V30 25 C 0.4398 3.754 -3.3734 0
M  V30 26 C 1.2312 -2.2316 2.2164 0
M  V30 27 C 3.2261 1.0718 -2.8027 0
M  V30 28 C 2.9564 2.6083 -4.8077 0
M  V30 29 C -0.7604 3.8114 -2.4456 0
M  V30 30 O 0.6019 -1.7485 1.0266 0
M  V30 31 C 1.6236 -3.6993 2.0495 0
M  V30 32 C 3.8545 -0.1267 -3.5462 0
M  V30 33 O -0.7821 4.6023 -1.5017 0
M  V30 34 C -1.9049 2.8347 -2.7432 0
M  V30 35 C 1.5356 -1.3716 0.025 0
M  V30 36 C 0.8491 -4.7002 1.5785 0
M  V30 37 C 3.0318 -4.0013 2.4998 0
M  V30 38 C 2.7897 -1.1142 -4.0716 0
M  V30 39 C 4.8489 -0.8399 -2.6074 0
M  V30 40 C -2.6791 2.526 -1.485 0
M  V30 41 C -2.8251 3.4413 -3.8 0
M  V30 42 C -0.5209 -4.5962 1.1241 0
M  V30 43 C 3.4205 -2.3546 -4.7235 0
M  V30 44 C 5.4415 -2.1056 -3.2222 0
M  V30 45 C -2.7409 1.3631 -0.7984 0
M  V30 46 C -1.2737 -5.6643 0.8187 0
M  V30 47 O 4.1071 -1.8769 -5.8929 0
M  V30 48 C 4.3369 -3.0489 -3.693 0
M  V30 49 C -3.6036 1.1853 0.4622 0
M  V30 50 C -1.9264 0.1469 -1.1654 0
M  V30 51 C -2.643 -5.6067 0.3568 0
M  V30 52 C 4.5471 -2.9051 -6.7688 0
M  V30 53 O 4.8977 -4.252 -4.214 0
M  V30 54 O -4.1092 2.4498 0.8906 0
M  V30 55 C -4.7446 0.1372 0.2916 0
M  V30 56 C -3.6794 -4.9655 0.9241 0
M  V30 57 O -6.0002 0.5898 -0.2286 0
M  V30 58 C -5.0726 -0.5056 1.6487 0
M  V30 59 C -3.6766 -4.1376 2.1908 0
M  V30 60 C -5.9255 1.191 -1.5084 0
M  V30 61 O -5.1731 0.145 2.6938 0
M  V30 62 C -5.2165 -2.031 1.7149 0
M  V30 63 C -3.8078 -2.6267 1.897 0
M  V30 64 C -4.7135 -4.6621 3.1857 0
M  V30 65 C -6.0152 -2.5895 0.5428 0
M  V30 66 H 2.6656 2.5823 -0.2142 0
M  V30 67 H 1.0664 5.6718 1.3161 0
M  V30 68 H 0.5244 4.7284 2.6923 0
M  V30 69 H 4.1663 3.0738 1.5101 0
M  V30 70 H 4.7017 4.0389 0.1359 0
M  V30 71 H 2.5542 6.0505 3.2609 0
M  V30 72 H 2.8148 4.3159 3.4399 0
M  V30 73 H 0.9791 2.6386 4.6331 0
M  V30 74 H -1.19 2.8276 4.9734 0
M  V30 75 H 4.7518 5.2763 2.3202 0
M  V30 76 H 3.7419 6.0707 1.1218 0
M  V30 77 H 1.3103 -0.3718 4.2575 0
M  V30 78 H 0.1612 1.2118 6.168 0
M  V30 79 H -1.516 0.881 6.5533 0
M  V30 80 H -3.1028 2.2543 3.5816 0
M  V30 81 H -2.7472 0.5244 3.6822 0
M  V30 82 H -3.3005 1.4163 5.1065 0
M  V30 83 H 1.176 2.4435 -1.8283 0
M  V30 84 H -0.7466 -2.3047 3.0988 0
M  V30 85 H 0.558 -2.7498 4.2179 0
M  V30 86 H -0.1679 -1.1874 6.0386 0
M  V30 87 H -1.5895 -0.9965 5.0204 0
M  V30 88 H 1.4453 1.3078 -4.0091 0
M  V30 89 H 0.1211 3.2634 -4.299 0
M  V30 90 H 0.7213 4.7817 -3.6286 0
M  V30 91 H 2.1327 -1.6338 2.4073 0
M  V30 92 H 2.6962 0.6884 -1.9215 0
M  V30 93 H 4.0359 1.7063 -2.4186 0
M  V30 94 H 3.2921 1.8583 -5.5304 0
M  V30 95 H 2.2899 3.2898 -5.3453 0
M  V30 96 H 3.8327 3.1796 -4.4841 0
M  V30 97 H 4.4302 0.2542 -4.3985 0
M  V30 98 H -1.4658 1.921 -3.1548 0
M  V30 99 H 2.1854 -0.5683 0.3851 0
M  V30 100 H 2.1396 -2.2274 -0.2904 0
M  V30 101 H 0.9805 -1.0075 -0.8429 0
M  V30 102 H 1.2688 -5.7053 1.5412 0
M  V30 103 H 3.2856 -5.0619 2.4005 0
M  V30 104 H 3.7503 -3.4318 1.901 0
M  V30 105 H 3.1593 -3.7279 3.5525 0
M  V30 106 H 2.1321 -1.4251 -3.2506 0
M  V30 107 H 2.1666 -0.6115 -4.8198 0
M  V30 108 H 4.3433 -1.1067 -1.6701 0
M  V30 109 H 5.663 -0.1554 -2.3403 0
M  V30 110 H -3.2626 3.3731 -1.1169 0
M  V30 111 H -3.2475 4.396 -3.4651 0
M  V30 112 H -3.6549 2.7654 -4.0344 0
M  V30 113 H -2.2793 3.6376 -4.7292 0
M  V30 114 H -0.9503 -3.6025 1.0362 0
M  V30 115 H 2.6251 -3.0387 -5.0438 0
M  V30 116 H 6.077 -2.6118 -2.4856 0
M  V30 117 H 6.1038 -1.8491 -4.0582 0
M  V30 118 H -0.8503 -6.6655 0.8677 0
M  V30 119 H 3.7266 -3.3458 -2.8304 0
M  V30 120 H -2.9288 0.8353 1.2535 0
M  V30 121 H -1.0313 0.3947 -1.7416 0
M  V30 122 H -1.5781 -0.3671 -0.2635 0
M  V30 123 H -2.5285 -0.5549 -1.75 0
M  V30 124 H -2.837 -6.2052 -0.5332 0
M  V30 125 H 5.479 -3.3448 -6.4063 0
M  V30 126 H 4.7556 -2.4507 -7.7416 0
M  V30 127 H 3.781 -3.674 -6.9056 0
M  V30 128 H 5.5161 -4.6004 -3.5492 0
M  V30 129 H -3.3402 2.9452 1.2414 0
M  V30 130 H -4.3825 -0.6676 -0.355 0
M  V30 131 H -4.6433 -5.0757 0.4305 0
M  V30 132 H -2.7086 -4.2651 2.6901 0
M  V30 133 H -5.5301 2.206 -1.435 0
M  V30 134 H -6.9412 1.2622 -1.9081 0
M  V30 135 H -5.3289 0.5865 -2.1979 0
M  V30 136 H -5.8053 -2.2222 2.6219 0
M  V30 137 H -3.3396 -2.0988 2.7411 0
M  V30 138 H -3.1866 -2.368 1.0285 0
M  V30 139 H -4.7134 -4.0575 4.0991 0
M  V30 140 H -4.4836 -5.6947 3.4727 0
M  V30 141 H -5.7272 -4.6576 2.7731 0
M  V30 142 H -6.8938 -1.9695 0.3345 0
M  V30 143 H -5.4181 -2.6427 -0.3727 0
M  V30 144 H -6.3818 -3.5964 0.7611 0
M  V30 END ATOM
M  V30 BEGIN BOND
M  V30 1 2 1 2
M  V30 2 1 2 3
M  V30 3 1 2 4
M  V30 4 1 3 5
M  V30 5 1 3 6
M  V30 6 2 4 7
M  V30 7 1 4 8
M  V30 8 1 5 9
M  V30 9 1 5 10
M  V30 10 1 6 11
M  V30 11 1 8 12
M  V30 12 1 8 13
M  V30 13 1 8 14
M  V30 14 2 9 15
M  V30 15 1 9 16
M  V30 16 1 10 17
M  V30 17 1 12 18
M  V30 18 1 14 19
M  V30 19 1 14 20
M  V30 20 1 16 21
M  V30 21 1 18 22
M  V30 22 1 18 23
M  V30 23 1 21 24
M  V30 24 1 21 25
M  V30 25 1 22 26
M  V30 26 1 24 27
M  V30 27 1 24 28
M  V30 28 1 25 29
M  V30 29 1 26 30
M  V30 30 1 26 31
M  V30 31 1 27 32
M  V30 32 2 29 33
M  V30 33 1 29 34
M  V30 34 1 30 35
M  V30 35 2 31 36
M  V30 36 1 31 37
M  V30 37 1 32 38
M  V30 38 1 32 39
M  V30 39 1 34 40
M  V30 40 1 34 41
M  V30 41 1 36 42
M  V30 42 1 38 43
M  V30 43 1 39 44
M  V30 44 2 40 45
M  V30 45 2 42 46
M  V30 46 1 43 47
M  V30 47 1 43 48
M  V30 48 1 45 49
M  V30 49 1 45 50
M  V30 50 1 46 51
M  V30 51 1 47 52
M  V30 52 1 48 53
M  V30 53 1 49 54
M  V30 54 1 49 55
M  V30 55 2 51 56
M  V30 56 1 55 57
M  V30 57 1 55 58
M  V30 58 1 56 59
M  V30 59 1 57 60
M  V30 60 2 58 61
M  V30 61 1 58 62
M  V30 62 1 59 63
M  V30 63 1 59 64
M  V30 64 1 62 65
M  V30 65 1 11 17
M  V30 66 1 19 23
M  V30 67 1 44 48
M  V30 68 1 62 63
M  V30 69 1 5 66
M  V30 70 1 6 67
M  V30 71 1 6 68
M  V30 72 1 10 69
M  V30 73 1 10 70
M  V30 74 1 11 71
M  V30 75 1 11 72
M  V30 76 1 13 73
M  V30 77 1 14 74
M  V30 78 1 17 75
M  V30 79 1 17 76
M  V30 80 1 18 77
M  V30 81 1 19 78
M  V30 82 1 19 79
M  V30 83 1 20 80
M  V30 84 1 20 81
M  V30 85 1 20 82
M  V30 86 1 21 83
M  V30 87 1 22 84
M  V30 88 1 22 85
M  V30 89 1 23 86
M  V30 90 1 23 87
M  V30 91 1 24 88
M  V30 92 1 25 89
M  V30 93 1 25 90
M  V30 94 1 26 91
M  V30 95 1 27 92
M  V30 96 1 27 93
M  V30 97 1 28 94
M  V30 98 1 28 95
M  V30 99 1 28 96
M  V30 100 1 32 97
M  V30 101 1 34 98
M  V30 102 1 35 99
M  V30 103 1 35 100
M  V30 104 1 35 101
M  V30 105 1 36 102
M  V30 106 1 37 103
M  V30 107 1 37 104
M  V30 108 1 37 105
M  V30 109 1 38 106
M  V30 110 1 38 107
M  V30 111 1 39 108
M  V30 112 1 39 109
M  V30 113 1 40 110
M  V30 114 1 41 111
M  V30 115 1 41 112
M  V30 116 1 41 113
M  V30 117 1 42 114
M  V30 118 1 43 115
M  V30 119 1 44 116
M  V30 120 1 44 117
M  V30 121 1 46 118
M  V30 122 1 48 119
M  V30 123 1 49 120
M  V30 124 1 50 121
M  V30 125 1 50 122
M  V30 126 1 50 123
M  V30 127 1 51 124
M  V30 128 1 52 125
M  V30 129 1 52 126
M  V30 130 1 52 127
M  V30 131 1 53 128
M  V30 132 1 54 129
M  V30 133 1 55 130
M  V30 134 1 56 131
M  V30 135 1 59 132
M  V30 136 1 60 133
M  V30 137 1 60 134
M  V30 138 1 60 135
M  V30 139 1 62 136
M  V30 140 1 63 137
M  V30 141 1 63 138
M  V30 142 1 64 139
M  V30 143 1 64 140
M  V30 144 1 64 141
M  V30 145 1 65 142
M  V30 146 1 65 143
M  V30 147 1 65 144
M  V30 END BOND
M  V30 END CTAB
M  END
>  <level_0>
5291

>  <index>
5291

>  <NO.>
5292

>  <Name>
sirolimus

>  <SMILES>
COC1CC2CCC(C)C(O)(O2)C(=O)C(=O)N2CCCCC2C(=O)OC(C(C)CC2CCC(O)C(OC)C2)CC(=O)C(C)C=C(C)C(O)C(OC)C(=O)C(C)CC(C)C=CC=CC=C1C

>  <logBB>


>  <Class>
-1

>  <MW>
913.56

>  <nHBAcc>
13

>  <nHBDon>
3

>  <SLogP>
6.18

>  <TopoPSA>
195.43

>  <MMFF94 Energy>
260.63

$$$$
CON=C(C(=O)NC1C(=O)N2C(C(=O)OCOC(=O)C(C)(C)C)=C(C=Cc3scnc3C)CSC12)c1csc(N)n1
Actelion Java MolfileCreator 2.0

  0  0  0  0  0  0              0 V3000
M  V30 BEGIN CTAB
M  V30 COUNTS 69 72 0 0 0
M  V30 BEGIN ATOM
M  V30 1 S 0.9013 1.4752 2.1314 0
M  V30 2 C 0.4205 -0.257 2.3244 0
M  V30 3 C 2.6061 1.056 1.6328 0
M  V30 4 N 0.5658 -0.8885 1.0344 0
M  V30 5 C -1.0906 -0.638 2.2434 0
M  V30 6 C 2.7016 0.0124 0.5224 0
M  V30 7 C 1.6811 -0.8447 0.2609 0
M  V30 8 C -0.6552 -1.4529 0.978 0
M  V30 9 N -2.0747 0.4411 1.9893 0
M  V30 10 C 3.9367 0.0247 -0.2832 0
M  V30 11 C 1.7011 -1.7458 -0.9281 0
M  V30 12 O -1.1717 -2.2166 0.1994 0
M  V30 13 C -2.5446 1.2417 3.0083 0
M  V30 14 C 5.0634 0.7092 -0.0125 0
M  V30 15 O 2.3684 -2.7644 -1.0044 0
M  V30 16 O 0.9011 -1.2081 -1.8759 0
M  V30 17 O -2.2145 1.132 4.1808 0
M  V30 18 C -3.4931 2.3529 2.5597 0
M  V30 19 C 6.2397 0.6729 -0.8286 0
M  V30 20 C 0.7576 -1.9953 -3.0569 0
M  V30 21 N -4.6006 2.1025 1.9169 0
M  V30 22 C -3.1501 3.7546 2.8125 0
M  V30 23 S 6.2471 0.1595 -2.482 0
M  V30 24 C 7.5388 1.0591 -0.4911 0
M  V30 25 O -0.2383 -3.009 -2.922 0
M  V30 26 O -4.8259 0.7281 1.7499 0
M  V30 27 N -3.9561 4.7967 2.3461 0
M  V30 28 C -2.0289 4.1891 3.4991 0
M  V30 29 C 7.9215 0.4694 -2.5814 0
M  V30 30 N 8.4874 0.9359 -1.4948 0
M  V30 31 C 7.9994 1.5792 0.8265 0
M  V30 32 C -1.5197 -2.5579 -2.9745 0
M  V30 33 C -6.0713 0.5579 1.0804 0
M  V30 34 C -3.4574 5.9588 2.6794 0
M  V30 35 S -1.9908 5.9008 3.5637 0
M  V30 36 O -1.8352 -1.3924 -3.1893 0
M  V30 37 C -2.5295 -3.7031 -2.8397 0
M  V30 38 N -4.0354 7.1198 2.3597 0
M  V30 39 C -3.7953 -3.17 -2.15 0
M  V30 40 C -2.8755 -4.1846 -4.2545 0
M  V30 41 C -1.9791 -4.8775 -2.0162 0
M  V30 42 H 0.9556 -0.7882 3.1213 0
M  V30 43 H 3.1633 0.7157 2.5128 0
M  V30 44 H 3.0356 2.008 1.3045 0
M  V30 45 H -1.4229 -1.292 3.059 0
M  V30 46 H -2.4836 0.5778 1.0672 0
M  V30 47 H 3.9267 -0.6127 -1.1657 0
M  V30 48 H 5.1373 1.3144 0.8859 0
M  V30 49 H 0.5177 -1.3255 -3.8917 0
M  V30 50 H 1.7033 -2.4792 -3.3289 0
M  V30 51 H -1.2456 3.6067 3.9639 0
M  V30 52 H 8.4794 0.2929 -3.4916 0
M  V30 53 H 9.0822 1.7398 0.8281 0
M  V30 54 H 7.7624 0.8687 1.6247 0
M  V30 55 H 7.5148 2.5346 1.0507 0
M  V30 56 H -6.0401 1.0355 0.0963 0
M  V30 57 H -6.8841 0.979 1.6802 0
M  V30 58 H -6.2479 -0.5125 0.9478 0
M  V30 59 H -3.6446 8.0125 2.6251 0
M  V30 60 H -4.9033 7.1156 1.8395 0
M  V30 61 H -4.2533 -2.3561 -2.7241 0
M  V30 62 H -4.5483 -3.9579 -2.0364 0
M  V30 63 H -3.5668 -2.7756 -1.1535 0
M  V30 64 H -3.2819 -3.3688 -4.8637 0
M  V30 65 H -1.9861 -4.5621 -4.7721 0
M  V30 66 H -3.6189 -4.989 -4.2306 0
M  V30 67 H -1.6526 -4.55 -1.0236 0
M  V30 68 H -1.1185 -5.3472 -2.5059 0
M  V30 69 H -2.7394 -5.655 -1.8792 0
M  V30 END ATOM
M  V30 BEGIN BOND
M  V30 1 1 1 2
M  V30 2 1 1 3
M  V30 3 1 2 4
M  V30 4 1 2 5
M  V30 5 1 3 6
M  V30 6 1 4 7
M  V30 7 1 4 8
M  V30 8 1 5 9
M  V30 9 1 6 10
M  V30 10 1 7 11
M  V30 11 2 8 12
M  V30 12 1 9 13
M  V30 13 2 10 14
M  V30 14 2 11 15
M  V30 15 1 11 16
M  V30 16 2 13 17
M  V30 17 1 13 18
M  V30 18 1 14 19
M  V30 19 1 16 20
M  V30 20 2 18 21
M  V30 21 1 18 22
M  V30 22 1 19 23
M  V30 23 2 19 24
M  V30 24 1 20 25
M  V30 25 1 21 26
M  V30 26 1 22 27
M  V30 27 2 22 28
M  V30 28 1 23 29
M  V30 29 1 24 30
M  V30 30 1 24 31
M  V30 31 1 25 32
M  V30 32 1 26 33
M  V30 33 2 27 34
M  V30 34 1 28 35
M  V30 35 2 32 36
M  V30 36 1 32 37
M  V30 37 1 34 38
M  V30 38 1 37 39
M  V30 39 1 37 40
M  V30 40 1 37 41
M  V30 41 1 5 8
M  V30 42 2 6 7
M  V30 43 2 29 30
M  V30 44 1 34 35
M  V30 45 1 2 42
M  V30 46 1 3 43
M  V30 47 1 3 44
M  V30 48 1 5 45
M  V30 49 1 9 46
M  V30 50 1 10 47
M  V30 51 1 14 48
M  V30 52 1 20 49
M  V30 53 1 20 50
M  V30 54 1 28 51
M  V30 55 1 29 52
M  V30 56 1 31 53
M  V30 57 1 31 54
M  V30 58 1 31 55
M  V30 59 1 33 56
M  V30 60 1 33 57
M  V30 61 1 33 58
M  V30 62 1 38 59
M  V30 63 1 38 60
M  V30 64 1 39 61
M  V30 65 1 39 62
M  V30 66 1 39 63
M  V30 67 1 40 64
M  V30 68 1 40 65
M  V30 69 1 40 66
M  V30 70 1 41 67
M  V30 71 1 41 68
M  V30 72 1 41 69
M  V30 END BOND
M  V30 END CTAB
M  END
>  <level_0>
5292

>  <index>
5292

>  <NO.>
5293

>  <Name>
cefditoren pivoxil

>  <SMILES>
CON=C(C(=O)NC1C(=O)N2C(C(=O)OCOC(=O)C(C)(C)C)=C(C=Cc3scnc3C)CSC12)c1csc(N)n1

>  <logBB>


>  <Class>
-1

>  <MW>
620.12

>  <nHBAcc>
14

>  <nHBDon>
2

>  <SLogP>
2.3

>  <TopoPSA>
175.4

>  <MMFF94 Energy>
69.232

$$$$
CO[C@H]1/C=C/O[C@@]2(C)Oc3c(C)c(O)c4c(O)c(c5c(c4c3C2=O)=NC2(CCN(CC(C)C)CC2)N=5)NC(=O)/C(C)=C\C=C\[C@H](C)[C@H](O)[C@@H](C)[C@@H](O)[C@@H](C)[C@H](OC(C)=O)[C@@H]1C
Actelion Java MolfileCreator 2.0

  0  0  0  0  0  0              0 V3000
M  V30 BEGIN CTAB
M  V30 COUNTS 123 128 0 0 0
M  V30 BEGIN ATOM
M  V30 1 O -2.3114 -1.195 6.7866 0
M  V30 2 C -1.6072 -1.0091 5.7991 0
M  V30 3 N -1.4269 -1.9953 4.8563 0
M  V30 4 C -0.9868 0.3278 5.5482 0
M  V30 5 C -0.491 -2.072 3.8451 0
M  V30 6 C -1.3148 1.0541 4.4591 0
M  V30 7 C -0.0647 0.8324 6.6146 0
M  V30 8 C 0.8343 -1.8865 3.996 0
M  V30 9 C -0.9807 -2.4579 2.5148 0
M  V30 10 C -2.3782 0.7338 3.5304 0
M  V30 11 O 1.3827 -1.7179 5.2536 0
M  V30 12 C 1.8074 -1.9072 2.8587 0
M  V30 13 N -2.1501 -2.8998 2.1931 0
M  V30 14 C -0.0774 -2.3625 1.3594 0
M  V30 15 C -2.5592 1.2295 2.2983 0
M  V30 16 C 3.2184 -1.8336 3.0275 0
M  V30 17 C 1.3139 -1.9649 1.5351 0
M  V30 18 C -2.0336 -3.1242 0.7229 0
M  V30 19 N -0.6578 -2.7627 0.2772 0
M  V30 20 C -1.6631 2.1547 1.4863 0 CFG=1
M  V30 21 O 3.7499 -1.8317 4.2915 0
M  V30 22 C 4.11 -1.8159 1.9371 0
M  V30 23 C 2.1866 -1.7943 0.4716 0
M  V30 24 C -2.2724 -4.6016 0.4133 0
M  V30 25 C -3.0449 -2.25 -0.0128 0
M  V30 26 C -1.422 1.4887 0.0975 0 CFG=2
M  V30 27 C -2.3235 3.5281 1.4567 0
M  V30 28 C 3.5514 -1.7676 0.6682 0
M  V30 29 C 5.601 -1.7948 2.1165 0
M  V30 30 C 2.0052 -1.5488 -0.9471 0
M  V30 31 C -3.7358 -4.9904 0.6148 0
M  V30 32 C -4.4792 -2.7333 0.2014 0
M  V30 33 O -0.4419 0.4434 0.3044 0
M  V30 34 C -0.9261 2.3304 -1.1051 0 CFG=2
M  V30 35 O 4.3118 -1.7239 -0.4682 0
M  V30 36 O 0.9478 -1.2599 -1.4844 0
M  V30 37 C 3.3994 -1.5814 -1.5974 0 CFG=2
M  V30 38 N -4.639 -4.1445 -0.1859 0
M  V30 39 C 0.4213 3.0897 -0.9034 0 CFG=1
M  V30 40 C -2.0325 3.237 -1.6665 0
M  V30 41 O 3.8019 -0.4054 -2.2845 0
M  V30 42 C 3.5715 -2.8372 -2.453 0
M  V30 43 C -6.0308 -4.6058 -0.0203 0
M  V30 44 O 1.1638 2.545 0.1966 0
M  V30 45 C 1.365 3.0187 -2.1434 0 CFG=2
M  V30 46 C 3.1082 0.0111 -3.3763 0
M  V30 47 C -7.0378 -3.9822 -1.0132 0
M  V30 48 C 2.7215 3.7461 -1.8692 0 CFG=2
M  V30 49 C 0.706 3.4637 -3.452 0
M  V30 50 C 3.3082 1.2179 -3.9246 0
M  V30 51 C -6.633 -4.2237 -2.4692 0
M  V30 52 C -8.4354 -4.556 -0.761 0
M  V30 53 O 2.9306 4.8694 -2.7618 0
M  V30 54 C 3.9739 2.8189 -1.9912 0 CFG=1
M  V30 55 C 4.2623 2.2866 -3.433 0 CFG=1
M  V30 56 C 2.3715 6.0569 -2.4013 0
M  V30 57 C 5.2033 3.5874 -1.4604 0
M  V30 58 O 5.5939 1.7445 -3.4766 0
M  V30 59 O 1.6544 6.2469 -1.4304 0
M  V30 60 C 2.7443 7.1136 -3.3954 0
M  V30 61 C 6.1745 1.7778 -4.773 0
M  V30 62 H -2.2283 -2.6165 4.7767 0
M  V30 63 H -0.8165 2.0086 4.2986 0
M  V30 64 H -0.6333 1.0749 7.5188 0
M  V30 65 H 0.4645 1.738 6.2996 0
M  V30 66 H 0.6891 0.0884 6.8825 0
M  V30 67 H -3.1455 0.0482 3.8927 0
M  V30 68 H 0.7336 -2.0258 5.9108 0
M  V30 69 H -3.4645 0.9044 1.783 0
M  V30 70 H -0.6995 2.2529 1.9991 0
M  V30 71 H 4.5424 -1.2714 4.3076 0
M  V30 72 H -1.6372 -5.235 1.0455 0
M  V30 73 H -1.9847 -4.814 -0.6253 0
M  V30 74 H -2.9655 -1.2106 0.3216 0
M  V30 75 H -2.8223 -2.2482 -1.0884 0
M  V30 76 H -2.3417 0.9816 -0.2216 0
M  V30 77 H -3.2629 3.517 0.8939 0
M  V30 78 H -1.6543 4.275 1.0207 0
M  V30 79 H -2.5545 3.8739 2.4717 0
M  V30 80 H 6.1264 -2.1175 1.212 0
M  V30 81 H 5.9057 -2.4817 2.9131 0
M  V30 82 H 5.9333 -0.7824 2.3668 0
M  V30 83 H -3.8452 -6.0382 0.3082 0
M  V30 84 H -3.9955 -4.9399 1.6806 0
M  V30 85 H -4.7747 -2.5788 1.2475 0
M  V30 86 H -5.1246 -2.0945 -0.4107 0
M  V30 87 H -0.493 -0.1781 -0.4579 0
M  V30 88 H -0.7392 1.579 -1.8867 0
M  V30 89 H 0.2217 4.1365 -0.6525 0
M  V30 90 H -3.0119 2.7504 -1.6042 0
M  V30 91 H -2.0916 4.1956 -1.1458 0
M  V30 92 H -1.869 3.4648 -2.7222 0
M  V30 93 H 4.5821 -2.8786 -2.8745 0
M  V30 94 H 2.863 -2.8651 -3.2867 0
M  V30 95 H 3.4262 -3.7469 -1.8593 0
M  V30 96 H -6.0601 -5.6941 -0.1687 0
M  V30 97 H -6.3696 -4.4247 1.0088 0
M  V30 98 H 0.93 1.5956 0.2732 0
M  V30 99 H 1.5807 1.9509 -2.2295 0
M  V30 100 H 2.3869 -0.6865 -3.7793 0
M  V30 101 H -7.0998 -2.9006 -0.8471 0
M  V30 102 H 2.7263 4.1308 -0.8408 0
M  V30 103 H 1.4311 3.5255 -4.2696 0
M  V30 104 H -0.0499 2.7425 -3.7763 0
M  V30 105 H 0.2278 4.4426 -3.3493 0
M  V30 106 H 2.7272 1.4786 -4.8052 0
M  V30 107 H -6.539 -5.2939 -2.6826 0
M  V30 108 H -5.676 -3.7451 -2.7005 0
M  V30 109 H -7.3806 -3.8077 -3.1532 0
M  V30 110 H -8.4577 -5.6387 -0.9255 0
M  V30 111 H -8.755 -4.362 0.2684 0
M  V30 112 H -9.1707 -4.0969 -1.4304 0
M  V30 113 H 3.8343 1.9717 -1.3078 0
M  V30 114 H 4.216 3.1379 -4.1245 0
M  V30 115 H 6.0657 2.9227 -1.3439 0
M  V30 116 H 5.0 4.0183 -0.4739 0
M  V30 117 H 5.4892 4.4014 -2.135 0
M  V30 118 H 3.8323 7.2007 -3.4538 0
M  V30 119 H 2.3245 6.8656 -4.3734 0
M  V30 120 H 2.3374 8.0759 -3.0715 0
M  V30 121 H 6.2659 2.8103 -5.1241 0
M  V30 122 H 7.1767 1.3453 -4.7092 0
M  V30 123 H 5.5886 1.1882 -5.4839 0
M  V30 END ATOM
M  V30 BEGIN BOND
M  V30 1 2 1 2
M  V30 2 1 2 3
M  V30 3 1 2 4
M  V30 4 1 3 5
M  V30 5 2 4 6
M  V30 6 1 4 7
M  V30 7 2 5 8
M  V30 8 1 5 9
M  V30 9 1 6 10
M  V30 10 1 8 11
M  V30 11 1 8 12
M  V30 12 2 9 13
M  V30 13 1 9 14
M  V30 14 2 10 15
M  V30 15 2 12 16
M  V30 16 1 12 17
M  V30 17 1 13 18
M  V30 18 2 14 19
M  V30 19 1 15 20
M  V30 20 1 16 21
M  V30 21 1 16 22
M  V30 22 2 17 23
M  V30 23 1 18 24
M  V30 24 1 18 25
M  V30 25 1 20 26
M  V30 26 1 20 27
M  V30 27 2 22 28
M  V30 28 1 22 29
M  V30 29 1 23 30
M  V30 30 1 24 31
M  V30 31 1 25 32
M  V30 32 1 26 33
M  V30 33 1 26 34
M  V30 34 1 28 35
M  V30 35 2 30 36
M  V30 36 1 30 37
M  V30 37 1 31 38
M  V30 38 1 34 39
M  V30 39 1 34 40
M  V30 40 1 37 41
M  V30 41 1 37 42
M  V30 42 1 38 43
M  V30 43 1 39 44
M  V30 44 1 39 45
M  V30 45 1 41 46
M  V30 46 1 43 47
M  V30 47 1 45 48
M  V30 48 1 45 49
M  V30 49 2 46 50
M  V30 50 1 47 51
M  V30 51 1 47 52
M  V30 52 1 48 53
M  V30 53 1 48 54
M  V30 54 1 50 55
M  V30 55 1 53 56
M  V30 56 1 54 57
M  V30 57 1 55 58
M  V30 58 2 56 59
M  V30 59 1 56 60
M  V30 60 1 58 61
M  V30 61 1 14 17
M  V30 62 1 18 19
M  V30 63 1 23 28
M  V30 64 1 32 38
M  V30 65 1 35 37
M  V30 66 1 54 55
M  V30 67 1 3 62
M  V30 68 1 6 63
M  V30 69 1 7 64
M  V30 70 1 7 65
M  V30 71 1 7 66
M  V30 72 1 10 67
M  V30 73 1 11 68
M  V30 74 1 15 69
M  V30 75 1 20 70
M  V30 76 1 21 71
M  V30 77 1 24 72
M  V30 78 1 24 73
M  V30 79 1 25 74
M  V30 80 1 25 75
M  V30 81 1 26 76
M  V30 82 1 27 77
M  V30 83 1 27 78
M  V30 84 1 27 79
M  V30 85 1 29 80
M  V30 86 1 29 81
M  V30 87 1 29 82
M  V30 88 1 31 83
M  V30 89 1 31 84
M  V30 90 1 32 85
M  V30 91 1 32 86
M  V30 92 1 33 87
M  V30 93 1 34 88
M  V30 94 1 39 89
M  V30 95 1 40 90
M  V30 96 1 40 91
M  V30 97 1 40 92
M  V30 98 1 42 93
M  V30 99 1 42 94
M  V30 100 1 42 95
M  V30 101 1 43 96
M  V30 102 1 43 97
M  V30 103 1 44 98
M  V30 104 1 45 99
M  V30 105 1 46 100
M  V30 106 1 47 101
M  V30 107 1 48 102
M  V30 108 1 49 103
M  V30 109 1 49 104
M  V30 110 1 49 105
M  V30 111 1 50 106
M  V30 112 1 51 107
M  V30 113 1 51 108
M  V30 114 1 51 109
M  V30 115 1 52 110
M  V30 116 1 52 111
M  V30 117 1 52 112
M  V30 118 1 54 113
M  V30 119 1 55 114
M  V30 120 1 57 115
M  V30 121 1 57 116
M  V30 122 1 57 117
M  V30 123 1 60 118
M  V30 124 1 60 119
M  V30 125 1 60 120
M  V30 126 1 61 121
M  V30 127 1 61 122
M  V30 128 1 61 123
M  V30 END BOND
M  V30 BEGIN COLLECTION
M  V30 MDLV30/STEABS ATOMS=(9 20 26 34 37 39 45 48 54 55)
M  V30 END COLLECTION
M  V30 END CTAB
M  END
>  <level_0>
5294

>  <index>
5294

>  <NO.>
5295

>  <Name>
rifabutin

>  <SMILES>
CO[C@H]1/C=C/O[C@@]2(C)Oc3c(C)c(O)c4c(O)c(c5c(c4c3C2=O)=NC2(CCN(CC(C)C)CC2)N=5)NC(=O)/C(C)=C\C=C\[C@H](C)[C@H](O)[C@@H](C)[C@@H](O)[C@@H](C)[C@H](OC(C)=O)[C@@H]1C

>  <logBB>


>  <Class>
-1

>  <MW>
846.44

>  <nHBAcc>
14

>  <nHBDon>
5

>  <SLogP>
4.75

>  <TopoPSA>
209.04

>  <MMFF94 Energy>
172.74

$$$$
COc1cc(Br)c(C[N+]2(CCOCCC3CCC4CC3C4(C)C)CCOCC2)cc1OC
Actelion Java MolfileCreator 2.0

  0  0  0  0  0  0              0 V3000
M  V30 BEGIN CTAB
M  V30 COUNTS 73 76 0 0 0
M  V30 BEGIN ATOM
M  V30 1 Br -0.8818 -4.6566 4.8979 0
M  V30 2 C -1.6201 -4.244 3.195 0
M  V30 3 C -0.9936 -3.385 2.2812 0
M  V30 4 C -2.8349 -4.876 2.8799 0
M  V30 5 C -1.6021 -3.2495 1.0218 0
M  V30 6 C 0.2943 -2.6407 2.5543 0
M  V30 7 C -3.4527 -4.6902 1.6377 0
M  V30 8 C -2.8114 -3.8825 0.691 0
M  V30 9 N 0.1945 -1.1517 3.0052 0 CHG=1
M  V30 10 O -4.6589 -5.2386 1.3058 0
M  V30 11 O -3.2217 -3.5687 -0.5777 0
M  V30 12 C -0.5762 -1.067 4.3558 0
M  V30 13 C 1.649 -0.6681 3.3097 0
M  V30 14 C -0.52 -0.2584 1.9505 0
M  V30 15 C -5.2922 -6.1122 2.2333 0
M  V30 16 C -4.1548 -4.4359 -1.2129 0
M  V30 17 C -0.4325 0.3099 5.0271 0
M  V30 18 C 1.6599 0.7064 3.9869 0
M  V30 19 C 0.214 -0.1032 0.6067 0
M  V30 20 O 0.939 0.6613 5.2239 0
M  V30 21 O 1.3576 0.7349 0.7802 0
M  V30 22 C 2.0156 1.0565 -0.4512 0
M  V30 23 C 1.3531 2.2607 -1.1192 0
M  V30 24 C 2.1138 2.7554 -2.362 0
M  V30 25 C 1.4364 4.0335 -2.9062 0
M  V30 26 C 2.1736 1.6783 -3.4725 0
M  V30 27 C 2.2158 4.7409 -4.0926 0
M  V30 28 C 0.3364 3.7001 -3.9666 0
M  V30 29 C 2.2165 2.2446 -4.9023 0
M  V30 30 C 1.5311 3.6159 -4.9675 0
M  V30 31 C 1.7514 6.1776 -4.404 0
M  V30 32 C 3.7472 4.7531 -4.0338 0
M  V30 33 H -3.2889 -5.5188 3.6297 0
M  V30 34 H -1.1349 -2.6516 0.2419 0
M  V30 35 H 0.9183 -2.6504 1.6527 0
M  V30 36 H 0.8895 -3.1582 3.3138 0
M  V30 37 H -0.1228 -1.8172 5.0093 0
M  V30 38 H -1.6254 -1.3101 4.1632 0
M  V30 39 H 2.2329 -0.7081 2.3885 0
M  V30 40 H 2.0676 -1.4061 4.0053 0
M  V30 41 H -1.519 -0.6775 1.805 0
M  V30 42 H -0.6418 0.7323 2.3944 0
M  V30 43 H -4.6666 -6.9858 2.443 0
M  V30 44 H -6.2197 -6.4689 1.7755 0
M  V30 45 H -5.5576 -5.5823 3.1539 0
M  V30 46 H -3.8746 -5.4886 -1.1033 0
M  V30 47 H -4.141 -4.2052 -2.2828 0
M  V30 48 H -5.1697 -4.2426 -0.8536 0
M  V30 49 H -0.9025 0.2738 6.0155 0
M  V30 50 H -0.9367 1.1039 4.4678 0
M  V30 51 H 1.2498 1.4986 3.3535 0
M  V30 52 H 2.6921 0.9828 4.2245 0
M  V30 53 H 0.5295 -1.0641 0.194 0
M  V30 54 H -0.4759 0.3651 -0.1026 0
M  V30 55 H 2.042 0.1786 -1.1058 0
M  V30 56 H 3.0505 1.3076 -0.1955 0
M  V30 57 H 0.3154 2.0248 -1.3829 0
M  V30 58 H 1.2804 3.0724 -0.3832 0
M  V30 59 H 3.1327 3.0028 -2.0419 0
M  V30 60 H 1.1259 4.7229 -2.1129 0
M  V30 61 H 3.0241 1.006 -3.3095 0
M  V30 62 H 1.2814 1.0411 -3.401 0
M  V30 63 H -0.2484 2.7881 -3.8128 0
M  V30 64 H -0.3848 4.5005 -4.162 0
M  V30 65 H 3.2489 2.315 -5.2606 0
M  V30 66 H 1.7089 1.5435 -5.5756 0
M  V30 67 H 1.3012 3.9124 -5.9962 0
M  V30 68 H 0.6655 6.2823 -4.4669 0
M  V30 69 H 2.0964 6.8684 -3.6264 0
M  V30 70 H 2.1632 6.5141 -5.362 0
M  V30 71 H 4.0965 5.4308 -3.2468 0
M  V30 72 H 4.186 3.7741 -3.8304 0
M  V30 73 H 4.1661 5.098 -4.9857 0
M  V30 END ATOM
M  V30 BEGIN BOND
M  V30 1 1 1 2
M  V30 2 2 2 3
M  V30 3 1 2 4
M  V30 4 1 3 5
M  V30 5 1 3 6
M  V30 6 2 4 7
M  V30 7 2 5 8
M  V30 8 1 6 9
M  V30 9 1 7 10
M  V30 10 1 8 11
M  V30 11 1 9 12
M  V30 12 1 9 13
M  V30 13 1 9 14
M  V30 14 1 10 15
M  V30 15 1 11 16
M  V30 16 1 12 17
M  V30 17 1 13 18
M  V30 18 1 14 19
M  V30 19 1 17 20
M  V30 20 1 19 21
M  V30 21 1 21 22
M  V30 22 1 22 23
M  V30 23 1 23 24
M  V30 24 1 24 25
M  V30 25 1 24 26
M  V30 26 1 25 27
M  V30 27 1 25 28
M  V30 28 1 26 29
M  V30 29 1 27 30
M  V30 30 1 27 31
M  V30 31 1 27 32
M  V30 32 1 7 8
M  V30 33 1 18 20
M  V30 34 1 28 30
M  V30 35 1 29 30
M  V30 36 1 4 33
M  V30 37 1 5 34
M  V30 38 1 6 35
M  V30 39 1 6 36
M  V30 40 1 12 37
M  V30 41 1 12 38
M  V30 42 1 13 39
M  V30 43 1 13 40
M  V30 44 1 14 41
M  V30 45 1 14 42
M  V30 46 1 15 43
M  V30 47 1 15 44
M  V30 48 1 15 45
M  V30 49 1 16 46
M  V30 50 1 16 47
M  V30 51 1 16 48
M  V30 52 1 17 49
M  V30 53 1 17 50
M  V30 54 1 18 51
M  V30 55 1 18 52
M  V30 56 1 19 53
M  V30 57 1 19 54
M  V30 58 1 22 55
M  V30 59 1 22 56
M  V30 60 1 23 57
M  V30 61 1 23 58
M  V30 62 1 24 59
M  V30 63 1 25 60
M  V30 64 1 26 61
M  V30 65 1 26 62
M  V30 66 1 28 63
M  V30 67 1 28 64
M  V30 68 1 29 65
M  V30 69 1 29 66
M  V30 70 1 30 67
M  V30 71 1 31 68
M  V30 72 1 31 69
M  V30 73 1 31 70
M  V30 74 1 32 71
M  V30 75 1 32 72
M  V30 76 1 32 73
M  V30 END BOND
M  V30 END CTAB
M  END
>  <level_0>
5300

>  <index>
5300

>  <NO.>
5301

>  <Name>
pinaverium

>  <SMILES>
COc1cc(Br)c(C[N+]2(CCOCCC3CCC4CC3C4(C)C)CCOCC2)cc1OC

>  <logBB>


>  <Class>
-1

>  <MW>
510.22

>  <nHBAcc>
4

>  <nHBDon>
0

>  <SLogP>
5.29

>  <TopoPSA>
36.92

>  <MMFF94 Energy>
176.63

$$$$
COc1cc(C(=O)NS(=O)(=O)c2ccccc2C)ccc1Cc1cn(C)c2ccc(NC(=O)OC3CCCC3)cc12
Actelion Java MolfileCreator 2.0

  0  0  0  0  0  0              0 V3000
M  V30 BEGIN CTAB
M  V30 COUNTS 74 78 0 0 0
M  V30 BEGIN ATOM
M  V30 1 S -0.7234 -5.8793 2.3324 0
M  V30 2 O -0.1468 -6.433 3.5382 0
M  V30 3 O -1.9992 -6.3667 1.8486 0
M  V30 4 N -0.9242 -4.2429 2.5497 0
M  V30 5 C 0.4551 -5.9981 0.9979 0
M  V30 6 C 0.1086 -3.3418 2.8324 0
M  V30 7 C 0.1111 -5.7049 -0.3371 0
M  V30 8 C 1.7507 -6.4335 1.3192 0
M  V30 9 O 1.2831 -3.6603 2.9184 0
M  V30 10 C -0.3155 -1.9247 2.9911 0
M  V30 11 C 1.0967 -5.8688 -1.327 0
M  V30 12 C -1.259 -5.2638 -0.7681 0
M  V30 13 C 2.7131 -6.5764 0.3218 0
M  V30 14 C 0.6179 -0.9212 2.696 0
M  V30 15 C -1.6022 -1.5748 3.4087 0
M  V30 16 C 2.3852 -6.2962 -1.0002 0
M  V30 17 C 0.2643 0.4299 2.7818 0
M  V30 18 C -1.9553 -0.229 3.5065 0
M  V30 19 O 1.1261 1.4641 2.5287 0
M  V30 20 C -1.0399 0.789 3.1756 0
M  V30 21 C 2.3485 1.1539 1.8688 0
M  V30 22 C -1.4612 2.2421 3.2814 0
M  V30 23 C -2.5376 2.4649 2.2611 0
M  V30 24 C -2.378 2.628 0.8429 0
M  V30 25 C -3.8907 2.5945 2.5233 0
M  V30 26 C -3.6479 2.8297 0.296 0
M  V30 27 C -1.2592 2.6254 -0.0243 0
M  V30 28 N -4.5451 2.8011 1.3406 0
M  V30 29 C -3.8451 3.0223 -1.0779 0
M  V30 30 C -1.4338 2.815 -1.4001 0
M  V30 31 C -5.9743 2.979 1.2115 0
M  V30 32 C -2.72 3.0122 -1.9094 0
M  V30 33 N -0.3749 2.8349 -2.3245 0
M  V30 34 C 0.9478 2.5751 -2.1146 0
M  V30 35 O 1.5034 2.2556 -1.076 0
M  V30 36 O 1.5926 2.7282 -3.3039 0
M  V30 37 C 3.0115 2.4983 -3.2766 0
M  V30 38 C 3.5002 2.3637 -4.7148 0
M  V30 39 C 3.7547 3.7395 -2.7935 0
M  V30 40 C 3.5935 3.7996 -5.2278 0
M  V30 41 C 3.7246 4.6866 -3.9902 0
M  V30 42 H -1.8468 -3.9277 2.2737 0
M  V30 43 H 2.0229 -6.6513 2.3508 0
M  V30 44 H 0.866 -5.6643 -2.3713 0
M  V30 45 H -1.2443 -4.8673 -1.7896 0
M  V30 46 H -1.6353 -4.4581 -0.1321 0
M  V30 47 H -1.9534 -6.109 -0.7529 0
M  V30 48 H 3.7164 -6.9062 0.5792 0
M  V30 49 H 1.6201 -1.2201 2.4012 0
M  V30 50 H -2.3342 -2.325 3.6937 0
M  V30 51 H 3.1332 -6.4117 -1.7807 0
M  V30 52 H -2.9585 0.0314 3.84 0
M  V30 53 H 3.0257 0.62 2.5431 0
M  V30 54 H 2.8283 2.0977 1.593 0
M  V30 55 H 2.1775 0.5826 0.9507 0
M  V30 56 H -0.6373 2.9418 3.1093 0
M  V30 57 H -1.8313 2.4368 4.2955 0
M  V30 58 H -4.4287 2.555 3.4618 0
M  V30 59 H -0.276 2.4814 0.4079 0
M  V30 60 H -4.8351 3.1796 -1.4934 0
M  V30 61 H -6.363 2.193 0.5591 0
M  V30 62 H -6.1628 3.967 0.7837 0
M  V30 63 H -6.4438 2.9069 2.1961 0
M  V30 64 H -2.8729 3.1636 -2.9754 0
M  V30 65 H -0.5889 3.0601 -3.2852 0
M  V30 66 H 3.2463 1.599 -2.6964 0
M  V30 67 H 4.4961 1.9054 -4.7316 0
M  V30 68 H 2.8297 1.7644 -5.3384 0
M  V30 69 H 4.7937 3.4841 -2.5542 0
M  V30 70 H 3.3009 4.2062 -1.9143 0
M  V30 71 H 2.6884 4.0686 -5.7845 0
M  V30 72 H 4.4433 3.9217 -5.9071 0
M  V30 73 H 4.6226 5.3115 -4.0282 0
M  V30 74 H 2.8605 5.358 -3.9227 0
M  V30 END ATOM
M  V30 BEGIN BOND
M  V30 1 2 1 2
M  V30 2 2 1 3
M  V30 3 1 1 4
M  V30 4 1 1 5
M  V30 5 1 4 6
M  V30 6 2 5 7
M  V30 7 1 5 8
M  V30 8 2 6 9
M  V30 9 1 6 10
M  V30 10 1 7 11
M  V30 11 1 7 12
M  V30 12 2 8 13
M  V30 13 2 10 14
M  V30 14 1 10 15
M  V30 15 2 11 16
M  V30 16 1 14 17
M  V30 17 2 15 18
M  V30 18 1 17 19
M  V30 19 2 17 20
M  V30 20 1 19 21
M  V30 21 1 20 22
M  V30 22 1 22 23
M  V30 23 1 23 24
M  V30 24 2 23 25
M  V30 25 2 24 26
M  V30 26 1 24 27
M  V30 27 1 25 28
M  V30 28 1 26 29
M  V30 29 2 27 30
M  V30 30 1 28 31
M  V30 31 2 29 32
M  V30 32 1 30 33
M  V30 33 1 33 34
M  V30 34 2 34 35
M  V30 35 1 34 36
M  V30 36 1 36 37
M  V30 37 1 37 38
M  V30 38 1 37 39
M  V30 39 1 38 40
M  V30 40 1 39 41
M  V30 41 1 13 16
M  V30 42 1 18 20
M  V30 43 1 26 28
M  V30 44 1 30 32
M  V30 45 1 40 41
M  V30 46 1 4 42
M  V30 47 1 8 43
M  V30 48 1 11 44
M  V30 49 1 12 45
M  V30 50 1 12 46
M  V30 51 1 12 47
M  V30 52 1 13 48
M  V30 53 1 14 49
M  V30 54 1 15 50
M  V30 55 1 16 51
M  V30 56 1 18 52
M  V30 57 1 21 53
M  V30 58 1 21 54
M  V30 59 1 21 55
M  V30 60 1 22 56
M  V30 61 1 22 57
M  V30 62 1 25 58
M  V30 63 1 27 59
M  V30 64 1 29 60
M  V30 65 1 31 61
M  V30 66 1 31 62
M  V30 67 1 31 63
M  V30 68 1 32 64
M  V30 69 1 33 65
M  V30 70 1 37 66
M  V30 71 1 38 67
M  V30 72 1 38 68
M  V30 73 1 39 69
M  V30 74 1 39 70
M  V30 75 1 40 71
M  V30 76 1 40 72
M  V30 77 1 41 73
M  V30 78 1 41 74
M  V30 END BOND
M  V30 END CTAB
M  END
>  <level_0>
5301

>  <index>
5301

>  <NO.>
5302

>  <Name>
zafirlukast

>  <SMILES>
COc1cc(C(=O)NS(=O)(=O)c2ccccc2C)ccc1Cc1cn(C)c2ccc(NC(=O)OC3CCCC3)cc12

>  <logBB>


>  <Class>
-1

>  <MW>
575.21

>  <nHBAcc>
6

>  <nHBDon>
2

>  <SLogP>
5.7

>  <TopoPSA>
115.73

>  <MMFF94 Energy>
-59.382

$$$$
COc1cc(C)c(C=CC(C)=CC=CC(C)=CC(=O)O)c(C)c1C
Actelion Java MolfileCreator 2.0

  0  0  0  0  0  0              0 V3000
M  V30 BEGIN CTAB
M  V30 COUNTS 50 50 0 0 0
M  V30 BEGIN ATOM
M  V30 1 O 8.2909 0.3898 -3.5913 0
M  V30 2 C 7.9505 0.7486 -2.4832 0
M  V30 3 O 8.8326 1.2812 -1.6183 0
M  V30 4 C 6.6158 0.7108 -1.8582 0
M  V30 5 C 5.4969 0.1458 -2.3574 0
M  V30 6 C 4.2634 0.2521 -1.5681 0
M  V30 7 C 5.418 -0.5986 -3.6671 0
M  V30 8 C 3.0474 -0.2053 -1.9144 0
M  V30 9 C 1.8839 -0.0488 -1.0615 0
M  V30 10 C 0.6224 -0.4649 -1.3046 0
M  V30 11 C -0.4009 -0.1948 -0.2911 0
M  V30 12 C 0.181 -1.1937 -2.5502 0
M  V30 13 C -1.6997 -0.5303 -0.36 0
M  V30 14 C -2.6331 -0.199 0.7302 0
M  V30 15 C -2.769 -1.0542 1.8512 0
M  V30 16 C -3.3815 0.993 0.6536 0
M  V30 17 C -3.6121 -0.6683 2.9272 0
M  V30 18 C -1.983 -2.3442 1.9296 0
M  V30 19 C -4.246 1.3324 1.7054 0
M  V30 20 C -3.2669 1.927 -0.5236 0
M  V30 21 C -4.37 0.5169 2.8327 0
M  V30 22 C -3.739 -1.5425 4.1536 0
M  V30 23 O -5.1997 0.7883 3.8912 0
M  V30 24 C -5.9972 1.9629 3.8262 0
M  V30 25 H 9.6772 1.2673 -2.115 0
M  V30 26 H 6.5852 1.2166 -0.8963 0
M  V30 27 H 4.3617 0.7608 -0.6083 0
M  V30 28 H 6.379 -0.7346 -4.1624 0
M  V30 29 H 4.7665 -0.0669 -4.3695 0
M  V30 30 H 5.0171 -1.6068 -3.5114 0
M  V30 31 H 2.9099 -0.7099 -2.8632 0
M  V30 32 H 2.0838 0.4689 -0.1223 0
M  V30 33 H -0.0629 0.3313 0.6029 0
M  V30 34 H -0.5885 -0.619 -3.0777 0
M  V30 35 H 0.985 -1.3693 -3.2675 0
M  V30 36 H -0.2286 -2.1771 -2.2935 0
M  V30 37 H -2.1383 -1.0516 -1.2039 0
M  V30 38 H -2.5526 -3.1276 2.4395 0
M  V30 39 H -1.7581 -2.7523 0.9396 0
M  V30 40 H -1.0436 -2.176 2.4652 0
M  V30 41 H -4.8134 2.2538 1.622 0
M  V30 42 H -3.4619 1.393 -1.4593 0
M  V30 43 H -2.2692 2.376 -0.5567 0
M  V30 44 H -3.9952 2.7428 -0.4621 0
M  V30 45 H -4.4204 -2.3741 3.949 0
M  V30 46 H -2.763 -1.9365 4.4552 0
M  V30 47 H -4.1153 -0.9935 5.0223 0
M  V30 48 H -5.3735 2.8622 3.7931 0
M  V30 49 H -6.5973 2.0097 4.7401 0
M  V30 50 H -6.688 1.9258 2.9775 0
M  V30 END ATOM
M  V30 BEGIN BOND
M  V30 1 2 1 2
M  V30 2 1 2 3
M  V30 3 1 2 4
M  V30 4 2 4 5
M  V30 5 1 5 6
M  V30 6 1 5 7
M  V30 7 2 6 8
M  V30 8 1 8 9
M  V30 9 2 9 10
M  V30 10 1 10 11
M  V30 11 1 10 12
M  V30 12 2 11 13
M  V30 13 1 13 14
M  V30 14 2 14 15
M  V30 15 1 14 16
M  V30 16 1 15 17
M  V30 17 1 15 18
M  V30 18 2 16 19
M  V30 19 1 16 20
M  V30 20 2 17 21
M  V30 21 1 17 22
M  V30 22 1 21 23
M  V30 23 1 23 24
M  V30 24 1 19 21
M  V30 25 1 3 25
M  V30 26 1 4 26
M  V30 27 1 6 27
M  V30 28 1 7 28
M  V30 29 1 7 29
M  V30 30 1 7 30
M  V30 31 1 8 31
M  V30 32 1 9 32
M  V30 33 1 11 33
M  V30 34 1 12 34
M  V30 35 1 12 35
M  V30 36 1 12 36
M  V30 37 1 13 37
M  V30 38 1 18 38
M  V30 39 1 18 39
M  V30 40 1 18 40
M  V30 41 1 19 41
M  V30 42 1 20 42
M  V30 43 1 20 43
M  V30 44 1 20 44
M  V30 45 1 22 45
M  V30 46 1 22 46
M  V30 47 1 22 47
M  V30 48 1 24 48
M  V30 49 1 24 49
M  V30 50 1 24 50
M  V30 END BOND
M  V30 END CTAB
M  END
>  <level_0>
5302

>  <index>
5302

>  <NO.>
5303

>  <Name>
9-cis acitretin

>  <SMILES>
COc1cc(C)c(C=CC(C)=CC=CC(C)=CC(=O)O)c(C)c1C

>  <logBB>


>  <Class>
-1

>  <MW>
326.19

>  <nHBAcc>
2

>  <nHBDon>
1

>  <SLogP>
5.17

>  <TopoPSA>
46.53

>  <MMFF94 Energy>
30.533

$$$$
COc1ccc(C(Cl)=C(c2ccc(OC)cc2)c2ccc(OC)cc2)cc1
Actelion Java MolfileCreator 2.0

  0  0  0  0  0  0              0 V3000
M  V30 BEGIN CTAB
M  V30 COUNTS 48 50 0 0 0
M  V30 BEGIN ATOM
M  V30 1 Cl -0.2399 2.7224 -2.1614 0
M  V30 2 C -0.4369 1.3262 -1.1286 0
M  V30 3 C -1.785 0.7288 -1.2268 0
M  V30 4 C 0.5601 0.8565 -0.3347 0
M  V30 5 C -2.1863 0.073 -2.3969 0
M  V30 6 C -2.6829 0.8071 -0.1539 0
M  V30 7 C 0.3534 -0.37 0.4836 0
M  V30 8 C 1.8669 1.5631 -0.2818 0
M  V30 9 C -3.457 -0.502 -2.4823 0
M  V30 10 C -3.9547 0.228 -0.242 0
M  V30 11 C 0.1972 -1.6262 -0.1168 0
M  V30 12 C 0.3421 -0.2824 1.8801 0
M  V30 13 C 2.9949 0.9914 -0.8823 0
M  V30 14 C 1.9998 2.7828 0.3916 0
M  V30 15 C -4.346 -0.4307 -1.4073 0
M  V30 16 C 0.005 -2.7725 0.6636 0
M  V30 17 C 0.153 -1.4289 2.6561 0
M  V30 18 C 4.2369 1.6348 -0.8227 0
M  V30 19 C 3.2407 3.4221 0.4484 0
M  V30 20 O -5.5522 -1.0383 -1.6225 0
M  V30 21 C -0.0208 -2.6773 2.0547 0
M  V30 22 C 4.3641 2.8545 -0.1574 0
M  V30 23 C -6.4928 -0.9934 -0.5568 0
M  V30 24 O -0.2008 -3.7129 2.9296 0
M  V30 25 O 5.5137 3.5835 -0.0251 0
M  V30 26 C -0.4036 -5.0021 2.3651 0
M  V30 27 C 6.683 3.0556 -0.638 0
M  V30 28 H -1.5137 0.0027 -3.2486 0
M  V30 29 H -2.3969 1.3164 0.7638 0
M  V30 30 H -3.7573 -1.0099 -3.3956 0
M  V30 31 H -4.6107 0.31 0.618 0
M  V30 32 H 0.2189 -1.7239 -1.1998 0
M  V30 33 H 0.4773 0.6756 2.3759 0
M  V30 34 H 2.9155 0.0394 -1.4021 0
M  V30 35 H 1.1415 3.2454 0.8725 0
M  V30 36 H -0.1206 -3.7204 0.1516 0
M  V30 37 H 0.142 -1.3481 3.7404 0
M  V30 38 H 5.0816 1.1545 -1.3044 0
M  V30 39 H 3.3329 4.372 0.9693 0
M  V30 40 H -6.1104 -1.5106 0.3294 0
M  V30 41 H -7.3949 -1.5188 -0.885 0
M  V30 42 H -6.7753 0.0382 -0.3225 0
M  V30 43 H -1.3096 -5.0264 1.7504 0
M  V30 44 H -0.5415 -5.7095 3.1886 0
M  V30 45 H 0.4723 -5.3244 1.7927 0
M  V30 46 H 6.9583 2.0916 -0.1976 0
M  V30 47 H 7.5038 3.7542 -0.4489 0
M  V30 48 H 6.5582 2.9745 -1.7229 0
M  V30 END ATOM
M  V30 BEGIN BOND
M  V30 1 1 1 2
M  V30 2 1 2 3
M  V30 3 2 2 4
M  V30 4 2 3 5
M  V30 5 1 3 6
M  V30 6 1 4 7
M  V30 7 1 4 8
M  V30 8 1 5 9
M  V30 9 2 6 10
M  V30 10 2 7 11
M  V30 11 1 7 12
M  V30 12 2 8 13
M  V30 13 1 8 14
M  V30 14 2 9 15
M  V30 15 1 11 16
M  V30 16 2 12 17
M  V30 17 1 13 18
M  V30 18 2 14 19
M  V30 19 1 15 20
M  V30 20 2 16 21
M  V30 21 2 18 22
M  V30 22 1 20 23
M  V30 23 1 21 24
M  V30 24 1 22 25
M  V30 25 1 24 26
M  V30 26 1 25 27
M  V30 27 1 10 15
M  V30 28 1 17 21
M  V30 29 1 19 22
M  V30 30 1 5 28
M  V30 31 1 6 29
M  V30 32 1 9 30
M  V30 33 1 10 31
M  V30 34 1 11 32
M  V30 35 1 12 33
M  V30 36 1 13 34
M  V30 37 1 14 35
M  V30 38 1 16 36
M  V30 39 1 17 37
M  V30 40 1 18 38
M  V30 41 1 19 39
M  V30 42 1 23 40
M  V30 43 1 23 41
M  V30 44 1 23 42
M  V30 45 1 26 43
M  V30 46 1 26 44
M  V30 47 1 26 45
M  V30 48 1 27 46
M  V30 49 1 27 47
M  V30 50 1 27 48
M  V30 END BOND
M  V30 END CTAB
M  END
>  <level_0>
5306

>  <index>
5306

>  <NO.>
5307

>  <Name>
chlorotrianisene

>  <SMILES>
COc1ccc(C(Cl)=C(c2ccc(OC)cc2)c2ccc(OC)cc2)cc1

>  <logBB>


>  <Class>
-1

>  <MW>
380.12

>  <nHBAcc>
3

>  <nHBDon>
0

>  <SLogP>
5.87

>  <TopoPSA>
27.69

>  <MMFF94 Energy>
93.913

$$$$
COc1ccc(OC)c(C(O)CNC(=O)CN)c1
Actelion Java MolfileCreator 2.0

  0  0  0  0  0  0              0 V3000
M  V30 BEGIN CTAB
M  V30 COUNTS 36 36 0 0 0
M  V30 BEGIN ATOM
M  V30 1 O 2.4966 2.5747 1.5598 0
M  V30 2 C 2.6525 1.4555 1.0788 0
M  V30 3 N 2.155 1.1008 -0.1501 0
M  V30 4 C 3.4226 0.3354 1.7845 0
M  V30 5 C 1.3312 1.9784 -0.9648 0
M  V30 6 N 2.9836 -0.9916 1.3013 0
M  V30 7 C -0.1248 2.112 -0.452 0 CFG=2
M  V30 8 O -0.1896 2.7729 0.8194 0
M  V30 9 C -0.8357 0.7688 -0.3929 0
M  V30 10 C -1.3412 0.1705 -1.5615 0
M  V30 11 C -0.9529 0.0778 0.8288 0
M  V30 12 O -1.1719 0.8819 -2.721 0
M  V30 13 C -1.95 -1.086 -1.484 0
M  V30 14 C -1.5567 -1.1779 0.9033 0
M  V30 15 C -1.7992 0.3789 -3.8942 0
M  V30 16 C -2.0563 -1.7568 -0.259 0
M  V30 17 O -1.5778 -1.7325 2.1527 0
M  V30 18 C -2.3064 -2.9441 2.3044 0
M  V30 19 H 2.2871 0.1264 -0.4145 0
M  V30 20 H 4.4886 0.4687 1.5794 0
M  V30 21 H 3.2458 0.4109 2.8616 0
M  V30 22 H 1.8069 2.9658 -0.9689 0
M  V30 23 H 1.3564 1.5787 -1.9833 0
M  V30 24 H 2.0011 -1.1138 1.5637 0
M  V30 25 H 3.4915 -1.7044 1.8255 0
M  V30 26 H -0.6726 2.7708 -1.1358 0
M  V30 27 H 0.7273 2.9754 1.0989 0
M  V30 28 H -0.5677 0.5291 1.7416 0
M  V30 29 H -2.3468 -1.5828 -2.3633 0
M  V30 30 H -1.3522 -0.5722 -4.2005 0
M  V30 31 H -1.6282 1.1003 -4.6989 0
M  V30 32 H -2.8815 0.2839 -3.757 0
M  V30 33 H -2.529 -2.7331 -0.253 0
M  V30 34 H -3.355 -2.8163 2.0154 0
M  V30 35 H -2.284 -3.2172 3.3639 0
M  V30 36 H -1.8369 -3.7572 1.7413 0
M  V30 END ATOM
M  V30 BEGIN BOND
M  V30 1 2 1 2
M  V30 2 1 2 3
M  V30 3 1 2 4
M  V30 4 1 3 5
M  V30 5 1 4 6
M  V30 6 1 5 7
M  V30 7 1 7 8
M  V30 8 1 7 9
M  V30 9 2 9 10
M  V30 10 1 9 11
M  V30 11 1 10 12
M  V30 12 1 10 13
M  V30 13 2 11 14
M  V30 14 1 12 15
M  V30 15 2 13 16
M  V30 16 1 14 17
M  V30 17 1 17 18
M  V30 18 1 14 16
M  V30 19 1 3 19
M  V30 20 1 4 20
M  V30 21 1 4 21
M  V30 22 1 5 22
M  V30 23 1 5 23
M  V30 24 1 6 24
M  V30 25 1 6 25
M  V30 26 1 7 26
M  V30 27 1 8 27
M  V30 28 1 11 28
M  V30 29 1 13 29
M  V30 30 1 15 30
M  V30 31 1 15 31
M  V30 32 1 15 32
M  V30 33 1 16 33
M  V30 34 1 18 34
M  V30 35 1 18 35
M  V30 36 1 18 36
M  V30 END BOND
M  V30 BEGIN COLLECTION
M  V30 MDLV30/STERAC1 ATOMS=(1 7)
M  V30 END COLLECTION
M  V30 END CTAB
M  END
>  <level_0>
5310

>  <index>
5310

>  <NO.>
5311

>  <Name>
midodrine

>  <SMILES>
COc1ccc(OC)c(C(O)CNC(=O)CN)c1

>  <logBB>


>  <Class>
-1

>  <MW>
254.13

>  <nHBAcc>
5

>  <nHBDon>
3

>  <SLogP>
-0.19

>  <TopoPSA>
93.81

>  <MMFF94 Energy>
58.809

$$$$
COc1ccc2c(c1)c(CC(=O)OCC=C(C)CCC=C(C)CCC=C(C)C)c(C)n2C(=O)c1ccc(Cl)cc1
Actelion Java MolfileCreator 2.0

  0  0  0  0  0  0              0 V3000
M  V30 BEGIN CTAB
M  V30 COUNTS 80 82 0 0 0
M  V30 BEGIN ATOM
M  V30 1 Cl -10.0274 5.9593 5.8797 0
M  V30 2 C -8.5307 5.1264 5.7238 0
M  V30 3 C -8.3149 4.2918 4.6267 0
M  V30 4 C -7.5458 5.2847 6.6989 0
M  V30 5 C -7.1003 3.6134 4.4966 0
M  V30 6 C -6.3299 4.6093 6.5727 0
M  V30 7 C -6.0992 3.7907 5.4604 0
M  V30 8 C -4.8172 3.0571 5.3619 0
M  V30 9 O -4.4325 2.4903 6.3843 0
M  V30 10 N -4.0349 2.9265 4.1816 0
M  V30 11 C -4.0399 3.7928 3.0799 0
M  V30 12 C -3.1191 1.902 3.9168 0
M  V30 13 C -3.2464 3.2222 2.0815 0
M  V30 14 C -4.6437 5.0498 2.879 0
M  V30 15 C -2.6738 2.0277 2.6086 0
M  V30 16 C -2.7693 0.8542 4.9246 0
M  V30 17 C -3.1194 3.8813 0.8336 0
M  V30 18 C -4.4993 5.6793 1.6383 0
M  V30 19 C -1.7407 1.1078 1.8749 0
M  V30 20 C -3.7545 5.1054 0.6155 0
M  V30 21 C -0.284 1.5073 1.9963 0
M  V30 22 O -3.7091 5.8396 -0.5381 0
M  V30 23 O 0.1647 2.4635 2.6119 0
M  V30 24 O 0.4771 0.6177 1.2915 0
M  V30 25 C -2.9117 5.3261 -1.5974 0
M  V30 26 C 1.8808 0.9032 1.3261 0
M  V30 27 C 2.5624 -0.1629 0.518 0
M  V30 28 C 3.4352 -0.0207 -0.5014 0
M  V30 29 C 4.0473 -1.1926 -1.2629 0
M  V30 30 C 3.9196 1.3135 -1.0156 0
M  V30 31 C 3.6115 -2.6113 -0.8688 0
M  V30 32 C 4.3237 -3.652 -1.6925 0
M  V30 33 C 3.8376 -4.362 -2.7305 0
M  V30 34 C 4.703 -5.4103 -3.4082 0
M  V30 35 C 2.4485 -4.2208 -3.2934 0
M  V30 36 C 5.2682 -4.9328 -4.7506 0
M  V30 37 C 6.1698 -5.9692 -5.3665 0
M  V30 38 C 5.887 -6.8044 -6.3851 0
M  V30 39 C 6.9273 -7.7627 -6.9038 0
M  V30 40 C 4.5605 -6.8914 -7.0882 0
M  V30 41 H -9.0894 4.1613 3.8747 0
M  V30 42 H -7.7207 5.9243 7.5606 0
M  V30 43 H -6.9493 2.9512 3.6469 0
M  V30 44 H -5.5672 4.7189 7.3415 0
M  V30 45 H -5.2031 5.5579 3.6574 0
M  V30 46 H -2.292 1.3037 5.801 0
M  V30 47 H -2.0615 0.1261 4.5177 0
M  V30 48 H -3.66 0.3001 5.2369 0
M  V30 49 H -2.503 3.4226 0.0702 0
M  V30 50 H -4.9719 6.6461 1.476 0
M  V30 51 H -1.8512 0.0849 2.2507 0
M  V30 52 H -2.0026 1.0982 0.8104 0
M  V30 53 H -1.8607 5.2497 -1.2997 0
M  V30 54 H -2.9706 6.0311 -2.432 0
M  V30 55 H -3.2953 4.3624 -1.9481 0
M  V30 56 H 2.2391 0.8466 2.3603 0
M  V30 57 H 2.0509 1.9084 0.9344 0
M  V30 58 H 2.2788 -1.1635 0.8368 0
M  V30 59 H 5.1389 -1.1235 -1.1602 0
M  V30 60 H 3.8231 -1.0491 -2.3289 0
M  V30 61 H 3.5802 2.1651 -0.4238 0
M  V30 62 H 5.0147 1.3424 -1.0101 0
M  V30 63 H 3.5766 1.4654 -2.0444 0
M  V30 64 H 3.8573 -2.7994 0.184 0
M  V30 65 H 2.5251 -2.7139 -0.9502 0
M  V30 66 H 5.3508 -3.8361 -1.376 0
M  V30 67 H 4.1106 -6.3239 -3.5499 0
M  V30 68 H 5.5324 -5.6967 -2.7474 0
M  V30 69 H 1.8901 -5.1519 -3.1522 0
M  V30 70 H 1.873 -3.4153 -2.8322 0
M  V30 71 H 2.4885 -4.0031 -4.3651 0
M  V30 72 H 4.4619 -4.6516 -5.4345 0
M  V30 73 H 5.8581 -4.0193 -4.6004 0
M  V30 74 H 7.1647 -6.01 -4.9225 0
M  V30 75 H 6.5838 -8.7956 -6.7867 0
M  V30 76 H 7.8813 -7.6675 -6.3747 0
M  V30 77 H 7.1167 -7.5764 -7.9659 0
M  V30 78 H 3.7789 -6.2922 -6.6156 0
M  V30 79 H 4.6619 -6.5573 -8.1257 0
M  V30 80 H 4.2051 -7.9275 -7.0931 0
M  V30 END ATOM
M  V30 BEGIN BOND
M  V30 1 1 1 2
M  V30 2 2 2 3
M  V30 3 1 2 4
M  V30 4 1 3 5
M  V30 5 2 4 6
M  V30 6 2 5 7
M  V30 7 1 7 8
M  V30 8 2 8 9
M  V30 9 1 8 10
M  V30 10 1 10 11
M  V30 11 1 10 12
M  V30 12 2 11 13
M  V30 13 1 11 14
M  V30 14 2 12 15
M  V30 15 1 12 16
M  V30 16 1 13 17
M  V30 17 2 14 18
M  V30 18 1 15 19
M  V30 19 2 17 20
M  V30 20 1 19 21
M  V30 21 1 20 22
M  V30 22 2 21 23
M  V30 23 1 21 24
M  V30 24 1 22 25
M  V30 25 1 24 26
M  V30 26 1 26 27
M  V30 27 2 27 28
M  V30 28 1 28 29
M  V30 29 1 28 30
M  V30 30 1 29 31
M  V30 31 1 31 32
M  V30 32 2 32 33
M  V30 33 1 33 34
M  V30 34 1 33 35
M  V30 35 1 34 36
M  V30 36 1 36 37
M  V30 37 2 37 38
M  V30 38 1 38 39
M  V30 39 1 38 40
M  V30 40 1 6 7
M  V30 41 1 13 15
M  V30 42 1 18 20
M  V30 43 1 3 41
M  V30 44 1 4 42
M  V30 45 1 5 43
M  V30 46 1 6 44
M  V30 47 1 14 45
M  V30 48 1 16 46
M  V30 49 1 16 47
M  V30 50 1 16 48
M  V30 51 1 17 49
M  V30 52 1 18 50
M  V30 53 1 19 51
M  V30 54 1 19 52
M  V30 55 1 25 53
M  V30 56 1 25 54
M  V30 57 1 25 55
M  V30 58 1 26 56
M  V30 59 1 26 57
M  V30 60 1 27 58
M  V30 61 1 29 59
M  V30 62 1 29 60
M  V30 63 1 30 61
M  V30 64 1 30 62
M  V30 65 1 30 63
M  V30 66 1 31 64
M  V30 67 1 31 65
M  V30 68 1 32 66
M  V30 69 1 34 67
M  V30 70 1 34 68
M  V30 71 1 35 69
M  V30 72 1 35 70
M  V30 73 1 35 71
M  V30 74 1 36 72
M  V30 75 1 36 73
M  V30 76 1 37 74
M  V30 77 1 39 75
M  V30 78 1 39 76
M  V30 79 1 39 77
M  V30 80 1 40 78
M  V30 81 1 40 79
M  V30 82 1 40 80
M  V30 END BOND
M  V30 END CTAB
M  END
>  <level_0>
5313

>  <index>
5313

>  <NO.>
5314

>  <Name>
indometacin

>  <SMILES>
COc1ccc2c(c1)c(CC(=O)OCC=C(C)CCC=C(C)CCC=C(C)C)c(C)n2C(=O)c1ccc(Cl)cc1

>  <logBB>


>  <Class>
-1

>  <MW>
561.26

>  <nHBAcc>
4

>  <nHBDon>
0

>  <SLogP>
8.81

>  <TopoPSA>
57.53

>  <MMFF94 Energy>
142.14

$$$$
CS(=O)(=O)OCC(O)C(O)COS(C)(=O)=O
Actelion Java MolfileCreator 2.0

  0  0  0  0  0  0              0 V3000
M  V30 BEGIN CTAB
M  V30 COUNTS 30 29 0 0 0
M  V30 BEGIN ATOM
M  V30 1 S -3.6081 -1.6388 -1.1469 0
M  V30 2 O -2.9174 -2.2427 -2.2654 0
M  V30 3 O -3.9056 -2.3722 0.0638 0
M  V30 4 O -2.8279 -0.2655 -0.7441 0
M  V30 5 C -5.1022 -0.8829 -1.7385 0
M  V30 6 C -1.5357 -0.4121 -0.1509 0
M  V30 7 C -0.9953 0.9885 0.1568 0
M  V30 8 O -0.8649 1.73 -1.062 0
M  V30 9 C 0.3483 0.9832 0.9023 0
M  V30 10 O 0.2018 0.295 2.1504 0
M  V30 11 C 1.4949 0.3555 0.1026 0
M  V30 12 O 2.6971 0.5102 0.8605 0
M  V30 13 S 4.0632 -0.0768 0.1929 0
M  V30 14 O 3.9848 -1.5213 0.1931 0
M  V30 15 O 4.3535 0.6804 -1.0047 0
M  V30 16 C 5.1783 0.435 1.4767 0
M  V30 17 H -4.8585 -0.2274 -2.5765 0
M  V30 18 H -5.7761 -1.6763 -2.068 0
M  V30 19 H -5.5593 -0.3188 -0.9233 0
M  V30 20 H -0.8888 -0.9264 -0.8691 0
M  V30 21 H -1.6211 -1.0092 0.7625 0
M  V30 22 H -1.7378 1.5153 0.7694 0
M  V30 23 H -1.7232 1.6598 -1.5202 0
M  V30 24 H 0.624 2.0178 1.1422 0
M  V30 25 H 1.0876 0.2733 2.5584 0
M  V30 26 H 1.3218 -0.7155 -0.0445 0
M  V30 27 H 1.6116 0.8475 -0.868 0
M  V30 28 H 4.8806 -0.04 2.4133 0
M  V30 29 H 6.1848 0.1157 1.1987 0
M  V30 30 H 5.1417 1.5226 1.5633 0
M  V30 END ATOM
M  V30 BEGIN BOND
M  V30 1 2 1 2
M  V30 2 2 1 3
M  V30 3 1 1 4
M  V30 4 1 1 5
M  V30 5 1 4 6
M  V30 6 1 6 7
M  V30 7 1 7 8
M  V30 8 1 7 9
M  V30 9 1 9 10
M  V30 10 1 9 11
M  V30 11 1 11 12
M  V30 12 1 12 13
M  V30 13 2 13 14
M  V30 14 2 13 15
M  V30 15 1 13 16
M  V30 16 1 5 17
M  V30 17 1 5 18
M  V30 18 1 5 19
M  V30 19 1 6 20
M  V30 20 1 6 21
M  V30 21 1 7 22
M  V30 22 1 8 23
M  V30 23 1 9 24
M  V30 24 1 10 25
M  V30 25 1 11 26
M  V30 26 1 11 27
M  V30 27 1 16 28
M  V30 28 1 16 29
M  V30 29 1 16 30
M  V30 END BOND
M  V30 END CTAB
M  END
>  <level_0>
5319

>  <index>
5319

>  <NO.>
5320

>  <Name>
treosulfan

>  <SMILES>
CS(=O)(=O)OCC(O)C(O)COS(C)(=O)=O

>  <logBB>


>  <Class>
-1

>  <MW>
278.01

>  <nHBAcc>
8

>  <nHBDon>
2

>  <SLogP>
-2.34

>  <TopoPSA>
127.2

>  <MMFF94 Energy>
-5.5758

$$$$
C[N+](C)(C)CC(O)CC(=O)O
Actelion Java MolfileCreator 2.0

  0  0  0  0  0  0              0 V3000
M  V30 BEGIN CTAB
M  V30 COUNTS 27 26 0 0 0
M  V30 BEGIN ATOM
M  V30 1 O -3.3887 -0.3846 1.6162 0
M  V30 2 C -2.4698 -0.6541 2.3719 0
M  V30 3 O -2.6573 -0.8266 3.6893 0
M  V30 4 C -1.04 -0.8614 1.964 0
M  V30 5 C -0.7906 -0.2421 0.5837 0 CFG=2
M  V30 6 O -1.4756 -1.0124 -0.4092 0
M  V30 7 C 0.7259 -0.2496 0.2781 0
M  V30 8 N 1.1404 0.4706 -1.0349 0 CHG=1
M  V30 9 C 0.4736 -0.1627 -2.2562 0
M  V30 10 C 2.6543 0.3158 -1.1891 0
M  V30 11 C 0.8052 1.9527 -0.9911 0
M  V30 12 H -3.6203 -0.7118 3.8467 0
M  V30 13 H -0.8477 -1.9396 1.9516 0
M  V30 14 H -0.3986 -0.379 2.7098 0
M  V30 15 H -1.184 0.7788 0.5519 0
M  V30 16 H -2.4365 -0.9616 -0.2056 0
M  V30 17 H 1.282 0.2438 1.084 0
M  V30 18 H 1.0827 -1.282 0.1786 0
M  V30 19 H 0.9688 0.2231 -3.1531 0
M  V30 20 H 0.5944 -1.2478 -2.1968 0
M  V30 21 H -0.5784 0.1294 -2.2838 0
M  V30 22 H 2.8884 -0.751 -1.2519 0
M  V30 23 H 2.9676 0.8294 -2.1031 0
M  V30 24 H 3.1377 0.7656 -0.3167 0
M  V30 25 H 1.2177 2.4274 -1.8867 0
M  V30 26 H -0.2804 2.0742 -0.9773 0
M  V30 27 H 1.2536 2.3823 -0.0907 0
M  V30 END ATOM
M  V30 BEGIN BOND
M  V30 1 2 1 2
M  V30 2 1 2 3
M  V30 3 1 2 4
M  V30 4 1 4 5
M  V30 5 1 5 6
M  V30 6 1 5 7
M  V30 7 1 7 8
M  V30 8 1 8 9
M  V30 9 1 8 10
M  V30 10 1 8 11
M  V30 11 1 3 12
M  V30 12 1 4 13
M  V30 13 1 4 14
M  V30 14 1 5 15
M  V30 15 1 6 16
M  V30 16 1 7 17
M  V30 17 1 7 18
M  V30 18 1 9 19
M  V30 19 1 9 20
M  V30 20 1 9 21
M  V30 21 1 10 22
M  V30 22 1 10 23
M  V30 23 1 10 24
M  V30 24 1 11 25
M  V30 25 1 11 26
M  V30 26 1 11 27
M  V30 END BOND
M  V30 BEGIN COLLECTION
M  V30 MDLV30/STERAC1 ATOMS=(1 5)
M  V30 END COLLECTION
M  V30 END CTAB
M  END
>  <level_0>
5321

>  <index>
5321

>  <NO.>
5322

>  <Name>
levocarnitine

>  <SMILES>
C[N+](C)(C)CC(O)CC(=O)O

>  <logBB>


>  <Class>
-1

>  <MW>
162.11

>  <nHBAcc>
2

>  <nHBDon>
2

>  <SLogP>
-0.47

>  <TopoPSA>
57.53

>  <MMFF94 Energy>
7.4543

$$$$
Cc1c(-c2ccc(-c3ccccc3F)cc2)nc2ccc(F)cc2c1C(=O)O
Actelion Java MolfileCreator 2.0

  0  0  0  0  0  0              0 V3000
M  V30 BEGIN CTAB
M  V30 COUNTS 43 46 0 0 0
M  V30 BEGIN ATOM
M  V30 1 F 1.294 3.3994 -3.7237 0
M  V30 2 C 2.5837 3.2218 -3.3962 0
M  V30 3 C 2.938 2.3454 -2.3579 0
M  V30 4 C 3.5414 3.9402 -4.1122 0
M  V30 5 C 1.9283 1.5851 -1.5988 0
M  V30 6 C 4.3083 2.2143 -2.0657 0
M  V30 7 C 4.8909 3.7952 -3.8034 0
M  V30 8 C 0.9334 0.8411 -2.251 0
M  V30 9 C 1.9288 1.5803 -0.1945 0
M  V30 10 C 5.2746 2.9313 -2.7803 0
M  V30 11 C -0.0189 0.1123 -1.5277 0
M  V30 12 C 0.9765 0.8516 0.5296 0
M  V30 13 C -0.005 0.094 -0.1259 0
M  V30 14 C -1.0112 -0.6763 0.6232 0
M  V30 15 N -2.2844 -0.2672 0.3917 0
M  V30 16 C -0.7061 -1.727 1.4884 0
M  V30 17 C -3.3041 -0.8508 1.0314 0
M  V30 18 C -1.7877 -2.3032 2.1829 0
M  V30 19 C 0.7059 -2.2086 1.6804 0
M  V30 20 C -3.1248 -1.8897 1.9608 0
M  V30 21 C -4.5886 -0.3917 0.7625 0
M  V30 22 C -1.5341 -3.3773 3.1634 0
M  V30 23 C -4.2695 -2.4317 2.6017 0
M  V30 24 C -5.7108 -0.9306 1.3927 0
M  V30 25 O -1.9753 -4.5083 3.1326 0
M  V30 26 O -0.7639 -2.9295 4.1702 0
M  V30 27 C -5.5392 -1.9494 2.3109 0
M  V30 28 F -6.6053 -2.475 2.9266 0
M  V30 29 H 3.2226 4.6094 -4.9051 0
M  V30 30 H 4.6368 1.536 -1.2802 0
M  V30 31 H 5.6408 4.3525 -4.3588 0
M  V30 32 H 0.8865 0.8233 -3.3384 0
M  V30 33 H 2.6641 2.1656 0.3545 0
M  V30 34 H 6.3278 2.8103 -2.5375 0
M  V30 35 H -0.7838 -0.4425 -2.0685 0
M  V30 36 H 0.9986 0.8939 1.6169 0
M  V30 37 H 1.3042 -2.08 0.7727 0
M  V30 38 H 1.1833 -1.6642 2.501 0
M  V30 39 H 0.739 -3.2811 1.8981 0
M  V30 40 H -4.7174 0.4137 0.0419 0
M  V30 41 H -4.1897 -3.2373 3.3268 0
M  V30 42 H -6.7058 -0.5588 1.1709 0
M  V30 43 H -0.6865 -3.6951 4.778 0
M  V30 END ATOM
M  V30 BEGIN BOND
M  V30 1 1 1 2
M  V30 2 2 2 3
M  V30 3 1 2 4
M  V30 4 1 3 5
M  V30 5 1 3 6
M  V30 6 2 4 7
M  V30 7 2 5 8
M  V30 8 1 5 9
M  V30 9 2 6 10
M  V30 10 1 8 11
M  V30 11 2 9 12
M  V30 12 2 11 13
M  V30 13 1 13 14
M  V30 14 2 14 15
M  V30 15 1 14 16
M  V30 16 1 15 17
M  V30 17 2 16 18
M  V30 18 1 16 19
M  V30 19 1 17 20
M  V30 20 2 17 21
M  V30 21 1 18 22
M  V30 22 2 20 23
M  V30 23 1 21 24
M  V30 24 2 22 25
M  V30 25 1 22 26
M  V30 26 1 23 27
M  V30 27 1 27 28
M  V30 28 1 7 10
M  V30 29 1 12 13
M  V30 30 1 18 20
M  V30 31 2 24 27
M  V30 32 1 4 29
M  V30 33 1 6 30
M  V30 34 1 7 31
M  V30 35 1 8 32
M  V30 36 1 9 33
M  V30 37 1 10 34
M  V30 38 1 11 35
M  V30 39 1 12 36
M  V30 40 1 19 37
M  V30 41 1 19 38
M  V30 42 1 19 39
M  V30 43 1 21 40
M  V30 44 1 23 41
M  V30 45 1 24 42
M  V30 46 1 26 43
M  V30 END BOND
M  V30 END CTAB
M  END
>  <level_0>
5325

>  <index>
5325

>  <NO.>
5326

>  <Name>
brequinar

>  <SMILES>
Cc1c(-c2ccc(-c3ccccc3F)cc2)nc2ccc(F)cc2c1C(=O)O

>  <logBB>


>  <Class>
-1

>  <MW>
375.11

>  <nHBAcc>
2

>  <nHBDon>
1

>  <SLogP>
5.85

>  <TopoPSA>
50.19

>  <MMFF94 Energy>
60.643

$$$$
Cc1cc(C=Cc2ccc3cc(N(C)C)ccc3[n+]2C)c(C)n1-c1ccccc1
Actelion Java MolfileCreator 2.0

  0  0  0  0  0  0              0 V3000
M  V30 BEGIN CTAB
M  V30 COUNTS 57 60 0 0 0
M  V30 BEGIN ATOM
M  V30 1 N -1.4982 0.6306 1.7349 0 CHG=1
M  V30 2 C -1.6178 0.6757 3.1032 0
M  V30 3 C -0.9314 -0.4481 1.1214 0
M  V30 4 C -1.9682 1.785 0.9302 0
M  V30 5 C -1.1156 -0.3904 3.8839 0
M  V30 6 C -2.2257 1.738 3.7868 0
M  V30 7 C -0.4339 -1.511 1.8769 0
M  V30 8 C -0.8709 -0.5412 -0.3402 0
M  V30 9 C -1.2225 -0.3545 5.2893 0
M  V30 10 C -0.518 -1.4792 3.2571 0
M  V30 11 C -2.3206 1.7475 5.1882 0
M  V30 12 C 0.2908 -0.5391 -1.0157 0
M  V30 13 C -1.8226 0.7082 5.9834 0
M  V30 14 C 0.413 -0.6144 -2.4378 0
M  V30 15 N -1.9189 0.7276 7.3657 0
M  V30 16 C 1.5858 -0.3926 -3.1441 0
M  V30 17 C -0.5978 -0.9267 -3.3793 0
M  V30 18 C -2.5475 1.8417 8.0732 0
M  V30 19 C -1.3976 -0.3641 8.1858 0
M  V30 20 N 1.3062 -0.5859 -4.4916 0
M  V30 21 C 2.9552 -0.0162 -2.6769 0
M  V30 22 C -0.031 -0.9044 -4.638 0
M  V30 23 C 2.2384 -0.4856 -5.5448 0
M  V30 24 C -0.6602 -1.1873 -5.9587 0
M  V30 25 C 2.2331 0.6511 -6.3568 0
M  V30 26 C 3.1475 -1.5258 -5.7521 0
M  V30 27 C 3.1585 0.7442 -7.3951 0
M  V30 28 C 4.068 -1.4214 -6.7936 0
M  V30 29 C 4.0733 -0.2891 -7.6123 0
M  V30 30 H -1.5022 2.6913 1.3275 0
M  V30 31 H -1.6843 1.7065 -0.1184 0
M  V30 32 H -3.0582 1.8231 1.0091 0
M  V30 33 H -2.6536 2.5936 3.2726 0
M  V30 34 H 0.0129 -2.3774 1.3904 0
M  V30 35 H -1.8265 -0.6034 -0.8533 0
M  V30 36 H -0.8198 -1.1956 5.8514 0
M  V30 37 H -0.126 -2.3161 3.8348 0
M  V30 38 H -2.8057 2.6075 5.6465 0
M  V30 39 H 1.2224 -0.4676 -0.4556 0
M  V30 40 H -1.6351 -1.1673 -3.185 0
M  V30 41 H -2.0162 2.7785 7.872 0
M  V30 42 H -2.5377 1.6988 9.1592 0
M  V30 43 H -3.5969 1.9471 7.7767 0
M  V30 44 H -1.9 -1.3066 7.9419 0
M  V30 45 H -1.5555 -0.1882 9.2555 0
M  V30 46 H -0.3179 -0.478 8.0393 0
M  V30 47 H 2.9314 0.4211 -1.6745 0
M  V30 48 H 3.4129 0.7302 -3.3339 0
M  V30 49 H 3.6005 -0.8997 -2.6452 0
M  V30 50 H -0.116 -1.9718 -6.4938 0
M  V30 51 H -1.6926 -1.5294 -5.8298 0
M  V30 52 H -0.6836 -0.2855 -6.5784 0
M  V30 53 H 1.5238 1.4575 -6.19 0
M  V30 54 H 3.1419 -2.4107 -5.1211 0
M  V30 55 H 3.1697 1.6207 -8.0386 0
M  V30 56 H 4.7813 -2.2222 -6.9729 0
M  V30 57 H 4.7923 -0.2129 -8.425 0
M  V30 END ATOM
M  V30 BEGIN BOND
M  V30 1 1 1 2
M  V30 2 2 1 3
M  V30 3 1 1 4
M  V30 4 1 2 5
M  V30 5 2 2 6
M  V30 6 1 3 7
M  V30 7 1 3 8
M  V30 8 2 5 9
M  V30 9 1 5 10
M  V30 10 1 6 11
M  V30 11 2 8 12
M  V30 12 1 9 13
M  V30 13 1 12 14
M  V30 14 1 13 15
M  V30 15 2 14 16
M  V30 16 1 14 17
M  V30 17 1 15 18
M  V30 18 1 15 19
M  V30 19 1 16 20
M  V30 20 1 16 21
M  V30 21 2 17 22
M  V30 22 1 20 23
M  V30 23 1 22 24
M  V30 24 2 23 25
M  V30 25 1 23 26
M  V30 26 1 25 27
M  V30 27 2 26 28
M  V30 28 2 27 29
M  V30 29 2 7 10
M  V30 30 2 11 13
M  V30 31 1 20 22
M  V30 32 1 28 29
M  V30 33 1 4 30
M  V30 34 1 4 31
M  V30 35 1 4 32
M  V30 36 1 6 33
M  V30 37 1 7 34
M  V30 38 1 8 35
M  V30 39 1 9 36
M  V30 40 1 10 37
M  V30 41 1 11 38
M  V30 42 1 12 39
M  V30 43 1 17 40
M  V30 44 1 18 41
M  V30 45 1 18 42
M  V30 46 1 18 43
M  V30 47 1 19 44
M  V30 48 1 19 45
M  V30 49 1 19 46
M  V30 50 1 21 47
M  V30 51 1 21 48
M  V30 52 1 21 49
M  V30 53 1 24 50
M  V30 54 1 24 51
M  V30 55 1 24 52
M  V30 56 1 25 53
M  V30 57 1 26 54
M  V30 58 1 27 55
M  V30 59 1 28 56
M  V30 60 1 29 57
M  V30 END BOND
M  V30 END CTAB
M  END
>  <level_0>
5333

>  <index>
5333

>  <NO.>
5334

>  <Name>
pyrvinium

>  <SMILES>
Cc1cc(C=Cc2ccc3cc(N(C)C)ccc3[n+]2C)c(C)n1-c1ccccc1

>  <logBB>


>  <Class>
-1

>  <MW>
382.23

>  <nHBAcc>
1

>  <nHBDon>
0

>  <SLogP>
5.31

>  <TopoPSA>
12.05

>  <MMFF94 Energy>
94.148

$$$$
Cc1cc2nc3c(=O)[nH]c(=O)nc-3n(CC(O)C(O)C(O)CO)c2cc1C
Actelion Java MolfileCreator 2.0

  0  0  0  0  0  0              0 V3000
M  V30 BEGIN CTAB
M  V30 COUNTS 47 49 0 0 0
M  V30 BEGIN ATOM
M  V30 1 O -0.4785 4.3929 2.1546 0
M  V30 2 C -0.2119 3.8443 1.0902 0
M  V30 3 N -0.0532 2.4912 1.007 0
M  V30 4 N -0.0771 4.6185 -0.0254 0
M  V30 5 C 0.1803 1.8756 -0.112 0
M  V30 6 C 0.1652 4.1753 -1.2898 0
M  V30 7 N 0.3438 0.4945 -0.1873 0
M  V30 8 C 0.2743 2.6782 -1.3862 0
M  V30 9 O 0.2771 4.9119 -2.2552 0
M  V30 10 C 0.4896 -0.1114 -1.4533 0
M  V30 11 C 0.41 -0.2935 1.0626 0
M  V30 12 N 0.4369 2.1149 -2.5439 0
M  V30 13 C 0.5334 0.7124 -2.6024 0
M  V30 14 C 0.57 -1.5009 -1.6502 0
M  V30 15 C -1.0023 -0.5772 1.6088 0
M  V30 16 C 0.6736 0.147 -3.8751 0
M  V30 17 C 0.7078 -2.0727 -2.9307 0
M  V30 18 O -1.7718 -1.3455 0.6525 0
M  V30 19 C -1.0191 -1.3909 2.9202 0
M  V30 20 C 0.7659 -1.2377 -4.057 0
M  V30 21 C 0.7876 -3.5705 -3.0638 0
M  V30 22 O -2.3968 -1.6269 3.2654 0
M  V30 23 C -0.3032 -0.767 4.1261 0
M  V30 24 C 0.9138 -1.7915 -5.4471 0
M  V30 25 O 1.1145 -0.7461 3.9145 0
M  V30 26 C -0.773 0.6504 4.4715 0
M  V30 27 O 0.001 1.1143 5.5843 0
M  V30 28 H -0.1835 5.6126 0.1064 0
M  V30 29 H 0.9741 -1.2222 0.9352 0
M  V30 30 H 0.9859 0.2898 1.7877 0
M  V30 31 H 0.5087 -2.1855 -0.8087 0
M  V30 32 H -1.566 0.3517 1.7474 0
M  V30 33 H 0.7088 0.8147 -4.7345 0
M  V30 34 H -1.7738 -0.8295 -0.1758 0
M  V30 35 H -0.5798 -2.3766 2.7205 0
M  V30 36 H 1.7429 -3.8612 -3.512 0
M  V30 37 H 0.716 -4.067 -2.0903 0
M  V30 38 H -0.0354 -3.9413 -3.6828 0
M  V30 39 H -2.8108 -1.9338 2.432 0
M  V30 40 H -0.471 -1.4019 5.0052 0
M  V30 41 H 0.0561 -2.4238 -5.6972 0
M  V30 42 H 1.8355 -2.3762 -5.5282 0
M  V30 43 H 0.9651 -0.9931 -6.1951 0
M  V30 44 H 1.4594 -0.2288 4.6737 0
M  V30 45 H -1.8327 0.6699 4.742 0
M  V30 46 H -0.5881 1.3452 3.6483 0
M  V30 47 H -0.3042 2.0214 5.7699 0
M  V30 END ATOM
M  V30 BEGIN BOND
M  V30 1 2 1 2
M  V30 2 1 2 3
M  V30 3 1 2 4
M  V30 4 2 3 5
M  V30 5 1 4 6
M  V30 6 1 5 7
M  V30 7 1 5 8
M  V30 8 2 6 9
M  V30 9 1 7 10
M  V30 10 1 7 11
M  V30 11 2 8 12
M  V30 12 2 10 13
M  V30 13 1 10 14
M  V30 14 1 11 15
M  V30 15 1 13 16
M  V30 16 2 14 17
M  V30 17 1 15 18
M  V30 18 1 15 19
M  V30 19 2 16 20
M  V30 20 1 17 21
M  V30 21 1 19 22
M  V30 22 1 19 23
M  V30 23 1 20 24
M  V30 24 1 23 25
M  V30 25 1 23 26
M  V30 26 1 26 27
M  V30 27 1 6 8
M  V30 28 1 12 13
M  V30 29 1 17 20
M  V30 30 1 4 28
M  V30 31 1 11 29
M  V30 32 1 11 30
M  V30 33 1 14 31
M  V30 34 1 15 32
M  V30 35 1 16 33
M  V30 36 1 18 34
M  V30 37 1 19 35
M  V30 38 1 21 36
M  V30 39 1 21 37
M  V30 40 1 21 38
M  V30 41 1 22 39
M  V30 42 1 23 40
M  V30 43 1 24 41
M  V30 44 1 24 42
M  V30 45 1 24 43
M  V30 46 1 25 44
M  V30 47 1 26 45
M  V30 48 1 26 46
M  V30 49 1 27 47
M  V30 END BOND
M  V30 END CTAB
M  END
>  <level_0>
5336

>  <index>
5336

>  <NO.>
5337

>  <Name>
riboflavin

>  <SMILES>
Cc1cc2nc3c(=O)[nH]c(=O)nc-3n(CC(O)C(O)C(O)CO)c2cc1C

>  <logBB>


>  <Class>
-1

>  <MW>
376.14

>  <nHBAcc>
8

>  <nHBDon>
5

>  <SLogP>
-1.72

>  <TopoPSA>
161.56

>  <MMFF94 Energy>
56.64

$$$$
Cc1cccc(C)c1NC(=O)CN1CCN(CCCC(c2ccc(F)cc2)c2ccc(F)cc2)CC1
Actelion Java MolfileCreator 2.0

  0  0  0  0  0  0              0 V3000
M  V30 BEGIN CTAB
M  V30 COUNTS 71 74 0 0 0
M  V30 BEGIN ATOM
M  V30 1 F -2.5499 -1.9119 -6.4642 0
M  V30 2 C -2.2795 -2.506 -5.2945 0
M  V30 3 C -3.2916 -3.1718 -4.6152 0
M  V30 4 C -0.9916 -2.4473 -4.7788 0
M  V30 5 C -3.0121 -3.7899 -3.3953 0
M  V30 6 C -0.7094 -3.0638 -3.559 0
M  V30 7 C -1.7172 -3.7406 -2.849 0
M  V30 8 C -1.4299 -4.4173 -1.5096 0
M  V30 9 C -0.487 -5.611 -1.6793 0
M  V30 10 C -0.9779 -3.401 -0.4308 0
M  V30 11 C 0.8917 -5.5356 -1.4161 0
M  V30 12 C -1.0131 -6.8307 -2.1483 0
M  V30 13 C -2.0862 -2.4062 -0.0513 0
M  V30 14 C 1.7143 -6.6495 -1.6011 0
M  V30 15 C -0.1893 -7.9422 -2.3332 0
M  V30 16 C -1.651 -1.4195 1.0428 0
M  V30 17 C 1.1666 -7.8414 -2.0561 0
M  V30 18 N -0.4612 -0.625 0.7002 0
M  V30 19 F 1.9584 -8.907 -2.2333 0
M  V30 20 C -0.7139 0.3107 -0.4145 0
M  V30 21 C -0.0021 0.1389 1.8792 0
M  V30 22 C 0.5092 1.2077 -0.7185 0
M  V30 23 C 1.2244 1.0243 1.5635 0
M  V30 24 N 0.949 1.9801 0.4634 0
M  V30 25 C 2.1714 2.7574 0.1295 0
M  V30 26 C 2.4498 3.8588 1.1629 0
M  V30 27 O 3.5752 4.3285 1.3073 0
M  V30 28 N 1.3036 4.2882 1.8056 0
M  V30 29 C 1.2206 5.3751 2.6905 0
M  V30 30 C 1.9768 5.4261 3.8779 0
M  V30 31 C 0.2962 6.3986 2.3899 0
M  V30 32 C 1.8427 6.5433 4.7192 0
M  V30 33 C 2.9418 4.3488 4.2893 0
M  V30 34 C 0.1704 7.4888 3.2633 0
M  V30 35 C -0.5471 6.3618 1.1441 0
M  V30 36 C 0.9458 7.5647 4.4164 0
M  V30 37 H -4.2898 -3.2067 -5.0395 0
M  V30 38 H -0.2151 -1.9271 -5.33 0
M  V30 39 H -3.8125 -4.309 -2.8727 0
M  V30 40 H 0.3046 -3.0175 -3.1686 0
M  V30 41 H -2.3727 -4.8412 -1.1319 0
M  V30 42 H -0.0922 -2.8508 -0.7689 0
M  V30 43 H -0.6826 -3.9448 0.4764 0
M  V30 44 H 1.3473 -4.612 -1.0685 0
M  V30 45 H -2.0732 -6.9182 -2.3782 0
M  V30 46 H -2.4312 -1.8556 -0.9326 0
M  V30 47 H -2.9551 -2.9649 0.319 0
M  V30 48 H 2.7785 -6.5922 -1.3961 0
M  V30 49 H -0.5961 -8.8809 -2.6944 0
M  V30 50 H -2.4965 -0.7639 1.2891 0
M  V30 51 H -1.4389 -2.0085 1.9449 0
M  V30 52 H -0.9424 -0.2461 -1.3296 0
M  V30 53 H -1.5795 0.949 -0.1917 0
M  V30 54 H -0.8114 0.7725 2.2673 0
M  V30 55 H 0.28 -0.5577 2.6779 0
M  V30 56 H 1.3283 0.5812 -1.0973 0
M  V30 57 H 0.2296 1.9009 -1.5211 0
M  V30 58 H 2.0756 0.3776 1.3104 0
M  V30 59 H 1.491 1.5679 2.4767 0
M  V30 60 H 2.0297 3.281 -0.8242 0
M  V30 61 H 3.0528 2.112 0.0409 0
M  V30 62 H 0.4443 3.8446 1.4942 0
M  V30 63 H 2.4376 6.6171 5.6273 0
M  V30 64 H 3.9354 4.5511 3.8797 0
M  V30 65 H 3.0264 4.3014 5.381 0
M  V30 66 H 2.6046 3.3596 3.9661 0
M  V30 67 H -0.5275 8.2937 3.0444 0
M  V30 68 H -1.2369 5.5125 1.1783 0
M  V30 69 H 0.0873 6.2825 0.2554 0
M  V30 70 H -1.1471 7.2718 1.0367 0
M  V30 71 H 0.8509 8.4191 5.0815 0
M  V30 END ATOM
M  V30 BEGIN BOND
M  V30 1 1 1 2
M  V30 2 2 2 3
M  V30 3 1 2 4
M  V30 4 1 3 5
M  V30 5 2 4 6
M  V30 6 2 5 7
M  V30 7 1 7 8
M  V30 8 1 8 9
M  V30 9 1 8 10
M  V30 10 2 9 11
M  V30 11 1 9 12
M  V30 12 1 10 13
M  V30 13 1 11 14
M  V30 14 2 12 15
M  V30 15 1 13 16
M  V30 16 2 14 17
M  V30 17 1 16 18
M  V30 18 1 17 19
M  V30 19 1 18 20
M  V30 20 1 18 21
M  V30 21 1 20 22
M  V30 22 1 21 23
M  V30 23 1 22 24
M  V30 24 1 24 25
M  V30 25 1 25 26
M  V30 26 2 26 27
M  V30 27 1 26 28
M  V30 28 1 28 29
M  V30 29 2 29 30
M  V30 30 1 29 31
M  V30 31 1 30 32
M  V30 32 1 30 33
M  V30 33 2 31 34
M  V30 34 1 31 35
M  V30 35 2 32 36
M  V30 36 1 6 7
M  V30 37 1 15 17
M  V30 38 1 23 24
M  V30 39 1 34 36
M  V30 40 1 3 37
M  V30 41 1 4 38
M  V30 42 1 5 39
M  V30 43 1 6 40
M  V30 44 1 8 41
M  V30 45 1 10 42
M  V30 46 1 10 43
M  V30 47 1 11 44
M  V30 48 1 12 45
M  V30 49 1 13 46
M  V30 50 1 13 47
M  V30 51 1 14 48
M  V30 52 1 15 49
M  V30 53 1 16 50
M  V30 54 1 16 51
M  V30 55 1 20 52
M  V30 56 1 20 53
M  V30 57 1 21 54
M  V30 58 1 21 55
M  V30 59 1 22 56
M  V30 60 1 22 57
M  V30 61 1 23 58
M  V30 62 1 23 59
M  V30 63 1 25 60
M  V30 64 1 25 61
M  V30 65 1 28 62
M  V30 66 1 32 63
M  V30 67 1 33 64
M  V30 68 1 33 65
M  V30 69 1 33 66
M  V30 70 1 34 67
M  V30 71 1 35 68
M  V30 72 1 35 69
M  V30 73 1 35 70
M  V30 74 1 36 71
M  V30 END BOND
M  V30 END CTAB
M  END
>  <level_0>
5340

>  <index>
5340

>  <NO.>
5341

>  <Name>
lidoflazine

>  <SMILES>
Cc1cccc(C)c1NC(=O)CN1CCN(CCCC(c2ccc(F)cc2)c2ccc(F)cc2)CC1

>  <logBB>


>  <Class>
-1

>  <MW>
491.27

>  <nHBAcc>
3

>  <nHBDon>
1

>  <SLogP>
5.75

>  <TopoPSA>
35.58

>  <MMFF94 Energy>
162.93

$$$$
Cc1cccc(CN2CCN(C(c3ccccc3)c3ccc(Cl)cc3)CC2)c1
Actelion Java MolfileCreator 2.0

  0  0  0  0  0  0              0 V3000
M  V30 BEGIN CTAB
M  V30 COUNTS 55 58 0 0 0
M  V30 BEGIN ATOM
M  V30 1 Cl -6.2735 -4.0985 -2.4093 0
M  V30 2 C -5.0058 -3.289 -1.5734 0
M  V30 3 C -4.9874 -1.8978 -1.5236 0
M  V30 4 C -4.0045 -4.0303 -0.9505 0
M  V30 5 C -3.9572 -1.2423 -0.8454 0
M  V30 6 C -2.9734 -3.3747 -0.2724 0
M  V30 7 C -2.9312 -1.9703 -0.2156 0
M  V30 8 C -1.8001 -1.2696 0.5536 0 CFG=1
M  V30 9 N -1.1878 -0.1307 -0.1954 0
M  V30 10 C -2.3021 -0.8907 1.9539 0
M  V30 11 C -0.6647 -0.568 -1.5128 0
M  V30 12 C -0.076 0.485 0.5721 0
M  V30 13 C -2.0022 -1.7158 3.0518 0
M  V30 14 C -3.0897 0.253 2.1736 0
M  V30 15 C 0.0615 0.5639 -2.279 0
M  V30 16 C 0.6455 1.6082 -0.2103 0
M  V30 17 C -2.4656 -1.3987 4.3305 0
M  V30 18 C -3.5514 0.5685 3.4528 0
M  V30 19 N 1.1598 1.2109 -1.5363 0
M  V30 20 C -3.2388 -0.2569 4.5303 0
M  V30 21 C 2.3382 0.3324 -1.4533 0
M  V30 22 C 3.5684 1.0221 -0.8991 0
M  V30 23 C 4.0661 2.1871 -1.5054 0
M  V30 24 C 4.2399 0.4984 0.2138 0
M  V30 25 C 5.2147 2.8225 -1.0153 0
M  V30 26 C 5.3762 1.1331 0.716 0
M  V30 27 C 5.8582 2.2925 0.108 0
M  V30 28 C 5.7078 4.0893 -1.649 0
M  V30 29 H -5.7688 -1.3173 -2.0063 0
M  V30 30 H -4.0229 -5.1163 -0.9848 0
M  V30 31 H -3.9498 -0.1545 -0.8151 0
M  V30 32 H -2.2047 -3.9689 0.2168 0
M  V30 33 H -0.9978 -2.0105 0.6899 0
M  V30 34 H -1.4842 -0.9037 -2.1571 0
M  V30 35 H 0.0164 -1.4202 -1.3914 0
M  V30 36 H 0.6534 -0.2786 0.8711 0
M  V30 37 H -0.455 0.9423 1.4922 0
M  V30 38 H -1.4069 -2.6159 2.9178 0
M  V30 39 H -3.3373 0.9112 1.3437 0
M  V30 40 H 0.4285 0.1797 -3.2389 0
M  V30 41 H -0.6745 1.337 -2.5384 0
M  V30 42 H 1.4432 2.0308 0.4115 0
M  V30 43 H -0.0633 2.4343 -0.3603 0
M  V30 44 H -2.2268 -2.0451 5.171 0
M  V30 45 H -4.1558 1.4587 3.6062 0
M  V30 46 H -3.6005 -0.0116 5.5253 0
M  V30 47 H 2.1278 -0.5749 -0.8751 0
M  V30 48 H 2.6101 -0.0094 -2.4612 0
M  V30 49 H 3.5403 2.6033 -2.3637 0
M  V30 50 H 3.8795 -0.4039 0.7013 0
M  V30 51 H 5.8864 0.7259 1.585 0
M  V30 52 H 6.74 2.7807 0.5165 0
M  V30 53 H 5.4981 4.0953 -2.7239 0
M  V30 54 H 6.7916 4.1902 -1.5295 0
M  V30 55 H 5.2192 4.9532 -1.1878 0
M  V30 END ATOM
M  V30 BEGIN BOND
M  V30 1 1 1 2
M  V30 2 2 2 3
M  V30 3 1 2 4
M  V30 4 1 3 5
M  V30 5 2 4 6
M  V30 6 2 5 7
M  V30 7 1 7 8
M  V30 8 1 8 9
M  V30 9 1 8 10
M  V30 10 1 9 11
M  V30 11 1 9 12
M  V30 12 2 10 13
M  V30 13 1 10 14
M  V30 14 1 11 15
M  V30 15 1 12 16
M  V30 16 1 13 17
M  V30 17 2 14 18
M  V30 18 1 15 19
M  V30 19 2 17 20
M  V30 20 1 19 21
M  V30 21 1 21 22
M  V30 22 2 22 23
M  V30 23 1 22 24
M  V30 24 1 23 25
M  V30 25 2 24 26
M  V30 26 2 25 27
M  V30 27 1 25 28
M  V30 28 1 6 7
M  V30 29 1 16 19
M  V30 30 1 18 20
M  V30 31 1 26 27
M  V30 32 1 3 29
M  V30 33 1 4 30
M  V30 34 1 5 31
M  V30 35 1 6 32
M  V30 36 1 8 33
M  V30 37 1 11 34
M  V30 38 1 11 35
M  V30 39 1 12 36
M  V30 40 1 12 37
M  V30 41 1 13 38
M  V30 42 1 14 39
M  V30 43 1 15 40
M  V30 44 1 15 41
M  V30 45 1 16 42
M  V30 46 1 16 43
M  V30 47 1 17 44
M  V30 48 1 18 45
M  V30 49 1 20 46
M  V30 50 1 21 47
M  V30 51 1 21 48
M  V30 52 1 23 49
M  V30 53 1 24 50
M  V30 54 1 26 51
M  V30 55 1 27 52
M  V30 56 1 28 53
M  V30 57 1 28 54
M  V30 58 1 28 55
M  V30 END BOND
M  V30 BEGIN COLLECTION
M  V30 MDLV30/STERAC1 ATOMS=(1 8)
M  V30 END COLLECTION
M  V30 END CTAB
M  END
>  <level_0>
5341

>  <index>
5341

>  <NO.>
5342

>  <Name>
meclizine

>  <SMILES>
Cc1cccc(CN2CCN(C(c3ccccc3)c3ccc(Cl)cc3)CC2)c1

>  <logBB>


>  <Class>
1

>  <MW>
390.19

>  <nHBAcc>
2

>  <nHBDon>
0

>  <SLogP>
5.56

>  <TopoPSA>
6.48

>  <MMFF94 Energy>
136.26

$$$$
Clc1ccc(C(c2ccccc2Cl)C(Cl)Cl)cc1
Actelion Java MolfileCreator 2.0

  0  0  0  0  0  0              0 V3000
M  V30 BEGIN CTAB
M  V30 COUNTS 28 29 0 0 0
M  V30 BEGIN ATOM
M  V30 1 Cl -1.7826 -1.1032 -2.0374 0
M  V30 2 C -1.9146 0.2899 -1.0179 0
M  V30 3 C -0.7843 0.9743 -0.5163 0
M  V30 4 C -3.213 0.7169 -0.7137 0
M  V30 5 C -1.0218 2.0902 0.3099 0
M  V30 6 C 0.644 0.4948 -0.8404 0 CFG=2
M  V30 7 C -3.4163 1.828 0.0981 0
M  V30 8 C -2.3211 2.5121 0.6103 0
M  V30 9 C 1.0477 -0.7464 -0.0367 0
M  V30 10 C 1.7406 1.6052 -0.8936 0
M  V30 11 C 1.6585 -1.8311 -0.6905 0
M  V30 12 C 0.8288 -0.8399 1.3484 0
M  V30 13 Cl 2.4463 2.0644 0.6877 0
M  V30 14 Cl 3.0991 1.137 -1.9779 0
M  V30 15 C 2.0389 -2.9733 0.0185 0
M  V30 16 C 1.2098 -1.9826 2.0571 0
M  V30 17 C 1.8129 -3.044 1.3896 0
M  V30 18 Cl 2.2804 -4.4501 2.2633 0
M  V30 19 H -4.0736 0.1812 -1.1078 0
M  V30 20 H -0.2105 2.6578 0.7556 0
M  V30 21 H 0.5662 0.1761 -1.8903 0
M  V30 22 H -4.4258 2.1548 0.3343 0
M  V30 23 H -2.4751 3.3765 1.2531 0
M  V30 24 H 1.3292 2.5196 -1.332 0
M  V30 25 H 1.8412 -1.8004 -1.7633 0
M  V30 26 H 0.3606 -0.0256 1.8973 0
M  V30 27 H 2.5086 -3.801 -0.5056 0
M  V30 28 H 1.0329 -2.0355 3.128 0
M  V30 END ATOM
M  V30 BEGIN BOND
M  V30 1 1 1 2
M  V30 2 2 2 3
M  V30 3 1 2 4
M  V30 4 1 3 5
M  V30 5 1 3 6
M  V30 6 2 4 7
M  V30 7 2 5 8
M  V30 8 1 6 9
M  V30 9 1 6 10
M  V30 10 2 9 11
M  V30 11 1 9 12
M  V30 12 1 10 13
M  V30 13 1 10 14
M  V30 14 1 11 15
M  V30 15 2 12 16
M  V30 16 2 15 17
M  V30 17 1 17 18
M  V30 18 1 7 8
M  V30 19 1 16 17
M  V30 20 1 4 19
M  V30 21 1 5 20
M  V30 22 1 6 21
M  V30 23 1 7 22
M  V30 24 1 8 23
M  V30 25 1 10 24
M  V30 26 1 11 25
M  V30 27 1 12 26
M  V30 28 1 15 27
M  V30 29 1 16 28
M  V30 END BOND
M  V30 BEGIN COLLECTION
M  V30 MDLV30/STERAC1 ATOMS=(1 6)
M  V30 END COLLECTION
M  V30 END CTAB
M  END
>  <level_0>
5346

>  <index>
5346

>  <NO.>
5347

>  <Name>
mitotane

>  <SMILES>
Clc1ccc(C(c2ccccc2Cl)C(Cl)Cl)cc1

>  <logBB>


>  <Class>
-1

>  <MW>
317.95

>  <nHBAcc>
0

>  <nHBDon>
0

>  <SLogP>
5.93

>  <TopoPSA>
0.0

>  <MMFF94 Energy>
71.99

$$$$
Cn1c(=O)c2c(ncn2CC(O)CO)n(C)c1=O
Actelion Java MolfileCreator 2.0

  0  0  0  0  0  0              0 V3000
M  V30 BEGIN CTAB
M  V30 COUNTS 32 33 0 0 0
M  V30 BEGIN ATOM
M  V30 1 O -2.1288 -1.7343 -3.234 0
M  V30 2 C -1.5702 -1.3692 -2.195 0
M  V30 3 N -2.1542 -0.3962 -1.3601 0
M  V30 4 N -0.3492 -1.9065 -1.789 0
M  V30 5 C -1.6487 0.0305 -0.1268 0
M  V30 6 C -3.4254 0.1491 -1.7933 0
M  V30 7 C 0.226 -1.4624 -0.6231 0
M  V30 8 C 0.317 -2.9159 -2.5908 0
M  V30 9 O -2.2583 0.7688 0.6414 0
M  V30 10 C -0.3736 -0.53 0.1703 0
M  V30 11 N 1.4104 -1.8908 -0.1051 0
M  V30 12 N 0.5079 -0.3241 1.1956 0
M  V30 13 C 1.5472 -1.2015 1.0078 0
M  V30 14 C 0.3886 0.6088 2.2983 0
M  V30 15 C 1.0223 1.9828 2.0442 0 CFG=2
M  V30 16 O 0.4019 2.6377 0.9339 0
M  V30 17 C 2.5352 1.9373 1.8091 0
M  V30 18 O 3.0246 3.2758 1.6902 0
M  V30 19 H -4.1907 -0.6255 -1.6804 0
M  V30 20 H -3.3687 0.4265 -2.8509 0
M  V30 21 H -3.7193 1.0286 -1.2146 0
M  V30 22 H 0.4495 -3.8204 -1.9889 0
M  V30 23 H 1.2952 -2.5361 -2.9022 0
M  V30 24 H -0.2577 -3.1728 -3.4843 0
M  V30 25 H 2.3765 -1.2881 1.6983 0
M  V30 26 H -0.6768 0.7191 2.5213 0
M  V30 27 H 0.8497 0.1366 3.1741 0
M  V30 28 H 0.8241 2.619 2.9151 0
M  V30 29 H 1.0017 3.3649 0.6726 0
M  V30 30 H 2.7752 1.4376 0.8664 0
M  V30 31 H 3.0641 1.4384 2.6266 0
M  V30 32 H 3.018 3.6776 2.5771 0
M  V30 END ATOM
M  V30 BEGIN BOND
M  V30 1 2 1 2
M  V30 2 1 2 3
M  V30 3 1 2 4
M  V30 4 1 3 5
M  V30 5 1 3 6
M  V30 6 1 4 7
M  V30 7 1 4 8
M  V30 8 2 5 9
M  V30 9 1 5 10
M  V30 10 1 7 11
M  V30 11 1 10 12
M  V30 12 2 11 13
M  V30 13 1 12 14
M  V30 14 1 14 15
M  V30 15 1 15 16
M  V30 16 1 15 17
M  V30 17 1 17 18
M  V30 18 2 7 10
M  V30 19 1 12 13
M  V30 20 1 6 19
M  V30 21 1 6 20
M  V30 22 1 6 21
M  V30 23 1 8 22
M  V30 24 1 8 23
M  V30 25 1 8 24
M  V30 26 1 13 25
M  V30 27 1 14 26
M  V30 28 1 14 27
M  V30 29 1 15 28
M  V30 30 1 16 29
M  V30 31 1 17 30
M  V30 32 1 17 31
M  V30 33 1 18 32
M  V30 END BOND
M  V30 BEGIN COLLECTION
M  V30 MDLV30/STERAC1 ATOMS=(1 15)
M  V30 END COLLECTION
M  V30 END CTAB
M  END
>  <level_0>
5347

>  <index>
5347

>  <NO.>
5348

>  <Name>
dyphylline

>  <SMILES>
Cn1c(=O)c2c(ncn2CC(O)CO)n(C)c1=O

>  <logBB>


>  <Class>
-1

>  <MW>
254.1

>  <nHBAcc>
5

>  <nHBDon>
2

>  <SLogP>
-2.21

>  <TopoPSA>
102.28

>  <MMFF94 Energy>
-94.714

$$$$
Cn1c(=O)c2c(ncn2CC2OCCO2)n(C)c1=O
Actelion Java MolfileCreator 2.0

  0  0  0  0  0  0              0 V3000
M  V30 BEGIN CTAB
M  V30 COUNTS 33 35 0 0 0
M  V30 BEGIN ATOM
M  V30 1 O -1.9155 -0.6382 -4.2339 0
M  V30 2 C -1.2698 -0.4154 -3.2053 0
M  V30 3 N -1.7245 0.5202 -2.2528 0
M  V30 4 N -0.0702 -1.072 -2.9306 0
M  V30 5 C -1.0853 0.8343 -1.0508 0
M  V30 6 C -2.975 1.1883 -2.5564 0
M  V30 7 C 0.6043 -0.7828 -1.7691 0
M  V30 8 C 0.4655 -2.0521 -3.8574 0
M  V30 9 O -1.5192 1.6243 -0.2181 0
M  V30 10 C 0.1337 0.1264 -0.8704 0
M  V30 11 N 1.7792 -1.3385 -1.365 0
M  V30 12 N 1.0621 0.145 0.1323 0
M  V30 13 C 2.0312 -0.7655 -0.2052 0
M  V30 14 C 1.0722 0.9839 1.3134 0
M  V30 15 C 0.2393 0.4104 2.4562 0
M  V30 16 O 0.8674 -0.7718 2.9825 0
M  V30 17 O 0.1153 1.3831 3.5093 0
M  V30 18 C 0.6258 -0.6919 4.3857 0
M  V30 19 C 0.7271 0.7843 4.6523 0
M  V30 20 H -3.769 0.4372 -2.6229 0
M  V30 21 H -2.8896 1.6836 -3.5292 0
M  V30 22 H -3.2494 1.9309 -1.8032 0
M  V30 23 H 0.5523 -3.0164 -3.3469 0
M  V30 24 H 1.4546 -1.7239 -4.1921 0
M  V30 25 H -0.1754 -2.1778 -4.7338 0
M  V30 26 H 2.8888 -0.9679 0.4247 0
M  V30 27 H 2.118 1.0977 1.6251 0
M  V30 28 H 0.7227 1.9816 1.0271 0
M  V30 29 H -0.7708 0.1458 2.1232 0
M  V30 30 H 1.3567 -1.2848 4.9407 0
M  V30 31 H -0.3815 -1.0734 4.5851 0
M  V30 32 H 0.2228 1.0966 5.57 0
M  V30 33 H 1.7711 1.114 4.6829 0
M  V30 END ATOM
M  V30 BEGIN BOND
M  V30 1 2 1 2
M  V30 2 1 2 3
M  V30 3 1 2 4
M  V30 4 1 3 5
M  V30 5 1 3 6
M  V30 6 1 4 7
M  V30 7 1 4 8
M  V30 8 2 5 9
M  V30 9 1 5 10
M  V30 10 1 7 11
M  V30 11 1 10 12
M  V30 12 2 11 13
M  V30 13 1 12 14
M  V30 14 1 14 15
M  V30 15 1 15 16
M  V30 16 1 15 17
M  V30 17 1 16 18
M  V30 18 1 17 19
M  V30 19 2 7 10
M  V30 20 1 12 13
M  V30 21 1 18 19
M  V30 22 1 6 20
M  V30 23 1 6 21
M  V30 24 1 6 22
M  V30 25 1 8 23
M  V30 26 1 8 24
M  V30 27 1 8 25
M  V30 28 1 13 26
M  V30 29 1 14 27
M  V30 30 1 14 28
M  V30 31 1 15 29
M  V30 32 1 18 30
M  V30 33 1 18 31
M  V30 34 1 19 32
M  V30 35 1 19 33
M  V30 END BOND
M  V30 END CTAB
M  END
>  <level_0>
5348

>  <index>
5348

>  <NO.>
5349

>  <Name>
doxofylline

>  <SMILES>
Cn1c(=O)c2c(ncn2CC2OCCO2)n(C)c1=O

>  <logBB>


>  <Class>
-1

>  <MW>
266.1

>  <nHBAcc>
5

>  <nHBDon>
0

>  <SLogP>
-1.19

>  <TopoPSA>
80.28

>  <MMFF94 Energy>
-102.14

$$$$
FC(F)(F)C(F)(F)C(F)(F)C(F)(F)C(F)(F)C(F)(F)C(F)(F)C(F)(F)Br
Actelion Java MolfileCreator 2.0

  0  0  0  0  0  0              0 V3000
M  V30 BEGIN CTAB
M  V30 COUNTS 26 25 0 0 0
M  V30 BEGIN ATOM
M  V30 1 Br 3.3068 -2.4123 -3.3068 0
M  V30 2 C 1.7354 -1.4003 -3.8683 0
M  V30 3 F 2.1128 -0.1508 -4.2422 0
M  V30 4 F 1.2626 -1.9971 -5.0013 0
M  V30 5 C 0.6274 -1.3572 -2.8236 0
M  V30 6 F -0.5 -0.8434 -3.406 0
M  V30 7 F 0.2906 -2.621 -2.4386 0
M  V30 8 C 0.9897 -0.5092 -1.6183 0
M  V30 9 F 2.0891 -1.0109 -0.9958 0
M  V30 10 F 1.3312 0.7454 -2.0192 0
M  V30 11 C -0.1665 -0.4402 -0.6334 0
M  V30 12 F -1.2692 0.0741 -1.2418 0
M  V30 13 F -0.5087 -1.6956 -0.2347 0
M  V30 14 C 0.1935 0.4048 0.5775 0
M  V30 15 F 0.54 1.659 0.1795 0
M  V30 16 F 1.2937 -0.111 1.1901 0
M  V30 17 C -0.9607 0.4748 1.5621 0
M  V30 18 F -1.3076 -0.7797 1.9586 0
M  V30 19 F -2.0614 0.9902 0.9501 0
M  V30 20 C -0.5961 1.3152 2.7644 0
M  V30 21 F -0.2517 2.5767 2.3786 0
M  V30 22 F 0.5024 0.8035 3.389 0
M  V30 23 C -1.7656 1.3667 3.7277 0
M  V30 24 F -2.8692 1.9152 3.1688 0
M  V30 25 F -2.1139 0.1398 4.1802 0
M  V30 26 F -1.4691 2.1151 4.8201 0
M  V30 END ATOM
M  V30 BEGIN BOND
M  V30 1 1 1 2
M  V30 2 1 2 3
M  V30 3 1 2 4
M  V30 4 1 2 5
M  V30 5 1 5 6
M  V30 6 1 5 7
M  V30 7 1 5 8
M  V30 8 1 8 9
M  V30 9 1 8 10
M  V30 10 1 8 11
M  V30 11 1 11 12
M  V30 12 1 11 13
M  V30 13 1 11 14
M  V30 14 1 14 15
M  V30 15 1 14 16
M  V30 16 1 14 17
M  V30 17 1 17 18
M  V30 18 1 17 19
M  V30 19 1 17 20
M  V30 20 1 20 21
M  V30 21 1 20 22
M  V30 22 1 20 23
M  V30 23 1 23 24
M  V30 24 1 23 25
M  V30 25 1 23 26
M  V30 END BOND
M  V30 END CTAB
M  END
>  <level_0>
5351

>  <index>
5351

>  <NO.>
5352

>  <Name>
perflubron

>  <SMILES>
FC(F)(F)C(F)(F)C(F)(F)C(F)(F)C(F)(F)C(F)(F)C(F)(F)C(F)(F)Br

>  <logBB>


>  <Class>
-1

>  <MW>
497.89

>  <nHBAcc>
0

>  <nHBDon>
0

>  <SLogP>
6.35

>  <TopoPSA>
0.0

>  <MMFF94 Energy>
72.044

$$$$
Fc1ccc(C(c2ccc(F)cc2)N2CCN(C/C=C/c3ccccc3)CC2)cc1
Actelion Java MolfileCreator 2.0

  0  0  0  0  0  0              0 V3000
M  V30 BEGIN CTAB
M  V30 COUNTS 56 59 0 0 0
M  V30 BEGIN ATOM
M  V30 1 F -0.1601 -2.8854 -7.3059 0
M  V30 2 C -0.425 -2.3959 -6.0875 0
M  V30 3 C -0.1329 -3.1592 -4.965 0
M  V30 4 C -0.9881 -1.1317 -5.9661 0
M  V30 5 C -0.4083 -2.6487 -3.6956 0
M  V30 6 C -1.2645 -0.6183 -4.6975 0
M  V30 7 C -0.9729 -1.3679 -3.5424 0
M  V30 8 C -1.3052 -0.7934 -2.156 0
M  V30 9 N -0.1978 -0.9495 -1.166 0
M  V30 10 C -2.6428 -1.3806 -1.678 0
M  V30 11 C -0.5479 -0.3141 0.1312 0
M  V30 12 C 1.0482 -0.3027 -1.6527 0
M  V30 13 C -2.7236 -2.6633 -1.1027 0
M  V30 14 C -3.8291 -0.6413 -1.8432 0
M  V30 15 C 0.6029 -0.3886 1.1604 0
M  V30 16 C 2.1984 -0.3708 -0.6223 0
M  V30 17 C -3.9517 -3.1853 -0.6941 0
M  V30 18 C -5.0563 -1.1662 -1.434 0
M  V30 19 N 1.8329 0.2592 0.6599 0
M  V30 20 C -5.1057 -2.4318 -0.8633 0
M  V30 21 C 2.9312 0.136 1.6257 0
M  V30 22 F -6.2844 -2.9324 -0.4707 0
M  V30 23 C 2.8748 1.0849 2.7957 0
M  V30 24 C 2.0944 2.1731 2.912 0
M  V30 25 C 2.0778 3.0597 4.083 0
M  V30 26 C 3.2448 3.4111 4.7736 0
M  V30 27 C 0.8594 3.6176 4.4912 0
M  V30 28 C 3.1901 4.2809 5.866 0
M  V30 29 C 0.8042 4.4866 5.5839 0
M  V30 30 C 1.9695 4.8158 6.2725 0
M  V30 31 H 0.3051 -4.1446 -5.083 0
M  V30 32 H -1.2112 -0.5562 -6.8586 0
M  V30 33 H -0.1726 -3.2485 -2.8193 0
M  V30 34 H -1.7118 0.3696 -4.6152 0
M  V30 35 H -1.4561 0.2892 -2.2831 0
M  V30 36 H -0.8258 0.7383 -0.0183 0
M  V30 37 H -1.409 -0.8155 0.5854 0
M  V30 38 H 1.4094 -0.7966 -2.5607 0
M  V30 39 H 0.86 0.7493 -1.9075 0
M  V30 40 H -1.8219 -3.2554 -0.9628 0
M  V30 41 H -3.8039 0.3476 -2.2951 0
M  V30 42 H 0.2613 0.1012 2.0792 0
M  V30 43 H 0.7911 -1.4424 1.4075 0
M  V30 44 H 3.0645 0.1483 -1.0504 0
M  V30 45 H 2.4869 -1.42 -0.4719 0
M  V30 46 H -4.0135 -4.172 -0.2474 0
M  V30 47 H -5.9727 -0.5987 -1.5594 0
M  V30 48 H 3.8872 0.3414 1.1258 0
M  V30 49 H 2.9987 -0.8922 2.0042 0
M  V30 50 H 3.5533 0.8271 3.6058 0
M  V30 51 H 1.4085 2.4381 2.1105 0
M  V30 52 H 4.2102 3.0218 4.4612 0
M  V30 53 H -0.0602 3.3726 3.9651 0
M  V30 54 H 4.1022 4.5443 6.3947 0
M  V30 55 H -0.1485 4.9066 5.895 0
M  V30 56 H 1.9275 5.493 7.1214 0
M  V30 END ATOM
M  V30 BEGIN BOND
M  V30 1 1 1 2
M  V30 2 2 2 3
M  V30 3 1 2 4
M  V30 4 1 3 5
M  V30 5 2 4 6
M  V30 6 2 5 7
M  V30 7 1 7 8
M  V30 8 1 8 9
M  V30 9 1 8 10
M  V30 10 1 9 11
M  V30 11 1 9 12
M  V30 12 2 10 13
M  V30 13 1 10 14
M  V30 14 1 11 15
M  V30 15 1 12 16
M  V30 16 1 13 17
M  V30 17 2 14 18
M  V30 18 1 15 19
M  V30 19 2 17 20
M  V30 20 1 19 21
M  V30 21 1 20 22
M  V30 22 1 21 23
M  V30 23 2 23 24
M  V30 24 1 24 25
M  V30 25 2 25 26
M  V30 26 1 25 27
M  V30 27 1 26 28
M  V30 28 2 27 29
M  V30 29 2 28 30
M  V30 30 1 6 7
M  V30 31 1 16 19
M  V30 32 1 18 20
M  V30 33 1 29 30
M  V30 34 1 3 31
M  V30 35 1 4 32
M  V30 36 1 5 33
M  V30 37 1 6 34
M  V30 38 1 8 35
M  V30 39 1 11 36
M  V30 40 1 11 37
M  V30 41 1 12 38
M  V30 42 1 12 39
M  V30 43 1 13 40
M  V30 44 1 14 41
M  V30 45 1 15 42
M  V30 46 1 15 43
M  V30 47 1 16 44
M  V30 48 1 16 45
M  V30 49 1 17 46
M  V30 50 1 18 47
M  V30 51 1 21 48
M  V30 52 1 21 49
M  V30 53 1 23 50
M  V30 54 1 24 51
M  V30 55 1 26 52
M  V30 56 1 27 53
M  V30 57 1 28 54
M  V30 58 1 29 55
M  V30 59 1 30 56
M  V30 END BOND
M  V30 END CTAB
M  END
>  <level_0>
5352

>  <index>
5352

>  <NO.>
5353

>  <Name>
flunarizine

>  <SMILES>
Fc1ccc(C(c2ccc(F)cc2)N2CCN(C/C=C/c3ccccc3)CC2)cc1

>  <logBB>


>  <Class>
1

>  <MW>
404.21

>  <nHBAcc>
2

>  <nHBDon>
0

>  <SLogP>
5.39

>  <TopoPSA>
6.48

>  <MMFF94 Energy>
120.66

$$$$
NC(=O)CCC1NC(=O)C(Cc2ccccc2)NC(=O)C(Cc2ccc(O)cc2)NC(=O)CCSSCC(C(=O)N2CCCC2C(=O)NC(CCCN=C(N)N)C(=O)NCC(N)=O)NC(=O)C(CC(N)=O)NC1=O
Actelion Java MolfileCreator 2.0

  0  0  0  0  0  0              0 V3000
M  V30 BEGIN CTAB
M  V30 COUNTS 138 141 0 0 0
M  V30 BEGIN ATOM
M  V30 1 S -2.228 -1.5911 1.5115 0
M  V30 2 S -2.905 -0.1197 2.7781 0
M  V30 3 C -0.6619 -0.8875 0.8783 0
M  V30 4 C -3.8912 1.0277 1.7373 0
M  V30 5 C 0.2847 -1.9536 0.3085 0
M  V30 6 C -3.2031 1.6183 0.5129 0
M  V30 7 N 0.9792 -1.4193 -0.8789 0
M  V30 8 C 1.3858 -2.2677 1.3426 0
M  V30 9 C -1.9941 2.4722 0.8352 0
M  V30 10 C 1.3323 -2.0471 -2.0302 0
M  V30 11 O 2.2608 -1.4294 1.6013 0
M  V30 12 N 1.3721 -3.494 1.9657 0
M  V30 13 O -1.717 2.8537 1.9728 0
M  V30 14 N -1.1867 2.8645 -0.1891 0
M  V30 15 O 1.7733 -1.3546 -2.9589 0
M  V30 16 C 0.9847 -3.5289 -2.2621 0
M  V30 17 C 2.5222 -3.9668 2.7471 0
M  V30 18 C 0.3773 -4.5458 1.8166 0
M  V30 19 C -1.2729 2.5591 -1.6266 0
M  V30 20 N -0.1637 -3.4309 -3.1644 0
M  V30 21 C 2.1472 -4.2453 -2.9388 0
M  V30 22 C 2.5914 -3.2808 4.1304 0
M  V30 23 C 2.3018 -5.4768 2.8603 0
M  V30 24 C 0.7847 -5.6147 2.8165 0
M  V30 25 C -0.0959 1.6292 -1.9818 0
M  V30 26 C -1.1831 3.845 -2.4653 0
M  V30 27 C -1.459 -3.6373 -2.7304 0
M  V30 28 C 3.2376 -4.5336 -1.9361 0
M  V30 29 O 2.1585 -3.7823 5.1628 0
M  V30 30 N 3.1546 -2.0244 4.0793 0
M  V30 31 O 0.9073 1.5455 -1.2659 0
M  V30 32 N -0.1259 0.887 -3.1271 0
M  V30 33 C -2.4827 4.6191 -2.4631 0
M  V30 34 O -1.7233 -4.3023 -1.7341 0
M  V30 35 C -2.522 -3.0767 -3.7101 0
M  V30 36 O 3.1075 -4.4167 -0.7241 0
M  V30 37 N 4.4071 -4.9738 -2.4788 0
M  V30 38 C 3.268 -1.1552 5.251 0
M  V30 39 C -1.2667 0.6068 -4.013 0
M  V30 40 C -3.3997 4.4706 -3.5143 0
M  V30 41 C -2.8017 5.4742 -1.3989 0
M  V30 42 N -2.0451 -1.7827 -4.2404 0
M  V30 43 C -3.9234 -2.9983 -3.0984 0
M  V30 44 C 1.9738 -0.3248 5.4115 0
M  V30 45 C 4.4671 -0.2166 5.0475 0
M  V30 46 C -1.922 -0.6716 -3.4328 0
M  V30 47 C -0.8289 0.5255 -5.4806 0
M  V30 48 C -4.6136 5.162 -3.5013 0
M  V30 49 C -4.0153 6.1625 -1.3847 0
M  V30 50 C -4.614 -4.3608 -3.0588 0
M  V30 51 O 1.5235 -0.0081 6.511 0
M  V30 52 N 1.483 0.2003 4.2326 0
M  V30 53 C 4.7663 0.6671 6.2599 0
M  V30 54 O -2.2601 -0.7031 -2.2476 0
M  V30 55 C -0.4165 1.8702 -6.033 0
M  V30 56 C -4.9112 6.0017 -2.4336 0
M  V30 57 C -5.9643 -4.2357 -2.3983 0
M  V30 58 C 0.5071 1.2667 4.2355 0
M  V30 59 C 5.7679 1.763 5.8975 0
M  V30 60 C -1.3567 2.6951 -6.6669 0
M  V30 61 C 0.9002 2.3271 -5.8868 0
M  V30 62 O -6.0842 6.6936 -2.3775 0
M  V30 63 O -7.008 -4.1161 -3.0284 0
M  V30 64 N -5.9425 -4.2318 -1.037 0
M  V30 65 C 1.1937 2.6361 4.1721 0
M  V30 66 N 6.0112 2.6304 7.0465 0
M  V30 67 C -0.9859 3.9543 -7.1406 0
M  V30 68 C 1.2674 3.587 -6.3607 0
M  V30 69 O 2.3103 2.8881 4.6212 0
M  V30 70 N 0.4503 3.6171 3.5776 0
M  V30 71 C 5.1886 3.5847 7.2832 0
M  V30 72 C 0.3247 4.4003 -6.9858 0
M  V30 73 N 5.4243 4.3965 8.3283 0
M  V30 74 N 4.0644 3.9408 6.6351 0
M  V30 75 H -0.171 -0.3227 1.6735 0
M  V30 76 H -0.9379 -0.1839 0.0923 0
M  V30 77 H -4.2206 1.8376 2.398 0
M  V30 78 H -4.7948 0.4924 1.4255 0
M  V30 79 H -0.2632 -2.8441 0.0107 0
M  V30 80 H -2.9312 0.8201 -0.1793 0
M  V30 81 H -3.9182 2.264 -0.0119 0
M  V30 82 H 1.2981 -0.4505 -0.8203 0
M  V30 83 H -0.344 3.3404 0.1153 0
M  V30 84 H 0.6948 -4.0349 -1.3427 0
M  V30 85 H 3.4515 -3.7496 2.2067 0
M  V30 86 H 0.4347 -4.9291 0.7933 0
M  V30 87 H -0.6282 -4.1623 1.9995 0
M  V30 88 H -2.2104 2.0359 -1.8237 0
M  V30 89 H -0.0368 -2.8688 -3.9974 0
M  V30 90 H 2.5633 -3.6631 -3.7694 0
M  V30 91 H 1.8114 -5.2057 -3.3485 0
M  V30 92 H 2.7351 -5.9791 1.9865 0
M  V30 93 H 2.7372 -5.9251 3.758 0
M  V30 94 H 0.4563 -6.6143 2.5193 0
M  V30 95 H 0.357 -5.3937 3.8014 0
M  V30 96 H -0.9144 3.6155 -3.5026 0
M  V30 97 H -0.3768 4.4932 -2.0965 0
M  V30 98 H 3.3069 -1.6293 3.1517 0
M  V30 99 H 0.7005 0.2927 -3.2208 0
M  V30 100 H -2.536 -3.7495 -4.5768 0
M  V30 101 H 5.1723 -5.1834 -1.8493 0
M  V30 102 H 4.5603 -5.0787 -3.4721 0
M  V30 103 H 3.3941 -1.7767 6.1444 0
M  V30 104 H -2.015 1.3985 -3.9048 0
M  V30 105 H -3.1724 3.8212 -4.3555 0
M  V30 106 H -2.1102 5.6103 -0.5701 0
M  V30 107 H -1.8656 -1.7347 -5.2332 0
M  V30 108 H -4.5455 -2.3081 -3.6836 0
M  V30 109 H -3.8794 -2.5848 -2.0835 0
M  V30 110 H 5.3604 -0.8105 4.8137 0
M  V30 111 H 4.2873 0.4194 4.1702 0
M  V30 112 H -1.6495 0.1464 -6.1025 0
M  V30 113 H -0.0032 -0.1877 -5.6025 0
M  V30 114 H -5.3077 5.0357 -4.3259 0
M  V30 115 H -4.2599 6.8233 -0.5575 0
M  V30 116 H -4.7601 -4.7503 -4.0725 0
M  V30 117 H -4.0209 -5.0995 -2.51 0
M  V30 118 H 1.9053 -0.0831 3.3557 0
M  V30 119 H 3.8485 1.1297 6.6346 0
M  V30 120 H 5.1602 0.0534 7.079 0
M  V30 121 H -0.1169 1.2285 5.1332 0
M  V30 122 H -0.121 1.1364 3.3547 0
M  V30 123 H 5.4363 2.3368 5.0234 0
M  V30 124 H 6.7214 1.3044 5.611 0
M  V30 125 H -2.3853 2.3675 -6.7988 0
M  V30 126 H 1.6504 1.7112 -5.3943 0
M  V30 127 H -6.599 6.5037 -3.1784 0
M  V30 128 H -6.8207 -4.1422 -0.543 0
M  V30 129 H -5.0889 -4.3044 -0.4977 0
M  V30 130 H -1.7184 4.5904 -7.6317 0
M  V30 131 H 2.2903 3.9357 -6.2397 0
M  V30 132 H 0.8325 4.5491 3.5162 0
M  V30 133 H -0.4569 3.4297 3.1458 0
M  V30 134 H 0.613 5.3819 -7.3538 0
M  V30 135 H 4.9592 5.2803 8.4373 0
M  V30 136 H 6.2563 4.2071 8.8687 0
M  V30 137 H 3.7012 3.3941 5.8536 0
M  V30 138 H 3.3742 4.5168 7.0865 0
M  V30 END ATOM
M  V30 BEGIN BOND
M  V30 1 1 1 2
M  V30 2 1 1 3
M  V30 3 1 2 4
M  V30 4 1 3 5
M  V30 5 1 4 6
M  V30 6 1 5 7
M  V30 7 1 5 8
M  V30 8 1 6 9
M  V30 9 1 7 10
M  V30 10 2 8 11
M  V30 11 1 8 12
M  V30 12 2 9 13
M  V30 13 1 9 14
M  V30 14 2 10 15
M  V30 15 1 10 16
M  V30 16 1 12 17
M  V30 17 1 12 18
M  V30 18 1 14 19
M  V30 19 1 16 20
M  V30 20 1 16 21
M  V30 21 1 17 22
M  V30 22 1 17 23
M  V30 23 1 18 24
M  V30 24 1 19 25
M  V30 25 1 19 26
M  V30 26 1 20 27
M  V30 27 1 21 28
M  V30 28 2 22 29
M  V30 29 1 22 30
M  V30 30 2 25 31
M  V30 31 1 25 32
M  V30 32 1 26 33
M  V30 33 2 27 34
M  V30 34 1 27 35
M  V30 35 2 28 36
M  V30 36 1 28 37
M  V30 37 1 30 38
M  V30 38 1 32 39
M  V30 39 2 33 40
M  V30 40 1 33 41
M  V30 41 1 35 42
M  V30 42 1 35 43
M  V30 43 1 38 44
M  V30 44 1 38 45
M  V30 45 1 39 46
M  V30 46 1 39 47
M  V30 47 1 40 48
M  V30 48 2 41 49
M  V30 49 1 43 50
M  V30 50 2 44 51
M  V30 51 1 44 52
M  V30 52 1 45 53
M  V30 53 2 46 54
M  V30 54 1 47 55
M  V30 55 2 48 56
M  V30 56 1 50 57
M  V30 57 1 52 58
M  V30 58 1 53 59
M  V30 59 2 55 60
M  V30 60 1 55 61
M  V30 61 1 56 62
M  V30 62 2 57 63
M  V30 63 1 57 64
M  V30 64 1 58 65
M  V30 65 1 59 66
M  V30 66 1 60 67
M  V30 67 2 61 68
M  V30 68 2 65 69
M  V30 69 1 65 70
M  V30 70 2 66 71
M  V30 71 2 67 72
M  V30 72 1 71 73
M  V30 73 1 71 74
M  V30 74 1 23 24
M  V30 75 1 42 46
M  V30 76 1 49 56
M  V30 77 1 68 72
M  V30 78 1 3 75
M  V30 79 1 3 76
M  V30 80 1 4 77
M  V30 81 1 4 78
M  V30 82 1 5 79
M  V30 83 1 6 80
M  V30 84 1 6 81
M  V30 85 1 7 82
M  V30 86 1 14 83
M  V30 87 1 16 84
M  V30 88 1 17 85
M  V30 89 1 18 86
M  V30 90 1 18 87
M  V30 91 1 19 88
M  V30 92 1 20 89
M  V30 93 1 21 90
M  V30 94 1 21 91
M  V30 95 1 23 92
M  V30 96 1 23 93
M  V30 97 1 24 94
M  V30 98 1 24 95
M  V30 99 1 26 96
M  V30 100 1 26 97
M  V30 101 1 30 98
M  V30 102 1 32 99
M  V30 103 1 35 100
M  V30 104 1 37 101
M  V30 105 1 37 102
M  V30 106 1 38 103
M  V30 107 1 39 104
M  V30 108 1 40 105
M  V30 109 1 41 106
M  V30 110 1 42 107
M  V30 111 1 43 108
M  V30 112 1 43 109
M  V30 113 1 45 110
M  V30 114 1 45 111
M  V30 115 1 47 112
M  V30 116 1 47 113
M  V30 117 1 48 114
M  V30 118 1 49 115
M  V30 119 1 50 116
M  V30 120 1 50 117
M  V30 121 1 52 118
M  V30 122 1 53 119
M  V30 123 1 53 120
M  V30 124 1 58 121
M  V30 125 1 58 122
M  V30 126 1 59 123
M  V30 127 1 59 124
M  V30 128 1 60 125
M  V30 129 1 61 126
M  V30 130 1 62 127
M  V30 131 1 64 128
M  V30 132 1 64 129
M  V30 133 1 67 130
M  V30 134 1 68 131
M  V30 135 1 70 132
M  V30 136 1 70 133
M  V30 137 1 72 134
M  V30 138 1 73 135
M  V30 139 1 73 136
M  V30 140 1 74 137
M  V30 141 1 74 138
M  V30 END BOND
M  V30 END CTAB
M  END
>  <level_0>
5353

>  <index>
5353

>  <NO.>
5354

>  <Name>
desmopressin

>  <SMILES>
NC(=O)CCC1NC(=O)C(Cc2ccccc2)NC(=O)C(Cc2ccc(O)cc2)NC(=O)CCSSCC(C(=O)N2CCCC2C(=O)NC(CCCN=C(N)N)C(=O)NCC(N)=O)NC(=O)C(CC(N)=O)NC1=O

>  <logBB>


>  <Class>
-1

>  <MW>
1068.43

>  <nHBAcc>
15

>  <nHBDon>
13

>  <SLogP>
-4.34

>  <TopoPSA>
437.91

>  <MMFF94 Energy>
-91.626

$$$$
NC(=O)c1ncn(C2OC(CO)C(O)C2O)c1O
Actelion Java MolfileCreator 2.0

  0  0  0  0  0  0              0 V3000
M  V30 BEGIN CTAB
M  V30 COUNTS 31 32 0 0 0
M  V30 BEGIN ATOM
M  V30 1 O 1.7446 0.5548 -5.1614 0
M  V30 2 C 1.6733 0.9082 -3.9878 0
M  V30 3 N 2.6014 1.7741 -3.4762 0
M  V30 4 C 0.6375 0.4595 -3.0512 0
M  V30 5 N -0.3855 -0.4023 -3.4179 0
M  V30 6 C 0.491 0.8104 -1.7136 0
M  V30 7 C -1.1209 -0.5667 -2.3475 0
M  V30 8 O 1.2014 1.6333 -0.9421 0
M  V30 9 N -0.6058 0.1058 -1.2727 0
M  V30 10 C -1.1727 0.0283 0.0671 0
M  V30 11 O -0.4964 0.9737 0.933 0
M  V30 12 C -1.0428 -1.3646 0.6953 0
M  V30 13 C 0.1333 0.2479 2.0116 0
M  V30 14 O -2.1692 -1.6843 1.5324 0
M  V30 15 C 0.1804 -1.2194 1.5845 0
M  V30 16 C -0.6002 0.5163 3.3312 0
M  V30 17 O 0.1668 -2.1405 2.67 0
M  V30 18 O 0.0924 -0.0438 4.4397 0
M  V30 19 H 2.5538 2.0764 -2.5102 0
M  V30 20 H 3.3318 2.1098 -4.0844 0
M  V30 21 H -2.018 -1.1711 -2.2982 0
M  V30 22 H 0.7063 1.7775 -0.1069 0
M  V30 23 H -2.2177 0.3479 -0.0154 0
M  V30 24 H -0.9347 -2.1873 -0.0179 0
M  V30 25 H 1.1593 0.6207 2.1156 0
M  V30 26 H -2.9221 -1.913 0.9552 0
M  V30 27 H 1.0858 -1.3898 0.9903 0
M  V30 28 H -0.6847 1.5958 3.4959 0
M  V30 29 H -1.6224 0.1263 3.3169 0
M  V30 30 H -0.7682 -2.4249 2.768 0
M  V30 31 H 0.2956 -0.975 4.2116 0
M  V30 END ATOM
M  V30 BEGIN BOND
M  V30 1 2 1 2
M  V30 2 1 2 3
M  V30 3 1 2 4
M  V30 4 1 4 5
M  V30 5 2 4 6
M  V30 6 2 5 7
M  V30 7 1 6 8
M  V30 8 1 6 9
M  V30 9 1 9 10
M  V30 10 1 10 11
M  V30 11 1 10 12
M  V30 12 1 11 13
M  V30 13 1 12 14
M  V30 14 1 12 15
M  V30 15 1 13 16
M  V30 16 1 15 17
M  V30 17 1 16 18
M  V30 18 1 7 9
M  V30 19 1 13 15
M  V30 20 1 3 19
M  V30 21 1 3 20
M  V30 22 1 7 21
M  V30 23 1 8 22
M  V30 24 1 10 23
M  V30 25 1 12 24
M  V30 26 1 13 25
M  V30 27 1 14 26
M  V30 28 1 15 27
M  V30 29 1 16 28
M  V30 30 1 16 29
M  V30 31 1 17 30
M  V30 32 1 18 31
M  V30 END BOND
M  V30 END CTAB
M  END
>  <level_0>
5354

>  <index>
5354

>  <NO.>
5355

>  <Name>
mizoribine

>  <SMILES>
NC(=O)c1ncn(C2OC(CO)C(O)C2O)c1O

>  <logBB>


>  <Class>
-1

>  <MW>
259.08

>  <nHBAcc>
7

>  <nHBDon>
5

>  <SLogP>
-2.7

>  <TopoPSA>
151.06

>  <MMFF94 Energy>
111.42

$$$$
NC(C(=O)O)C(O)c1ccc(O)c(O)c1
Actelion Java MolfileCreator 2.0

  0  0  0  0  0  0              0 V3000
M  V30 BEGIN CTAB
M  V30 COUNTS 26 26 0 0 0
M  V30 BEGIN ATOM
M  V30 1 O 1.9626 -1.884 -0.5492 0
M  V30 2 C 0.8548 -2.3692 -0.3966 0
M  V30 3 O 0.4343 -3.3674 -1.2086 0
M  V30 4 C -0.1847 -1.9689 0.6472 0
M  V30 5 N -1.0061 -3.1632 1.0567 0
M  V30 6 C -1.1153 -0.8761 0.0738 0
M  V30 7 O -2.2871 -0.7838 0.9041 0
M  V30 8 C -0.4671 0.4884 -0.0019 0
M  V30 9 C 0.0251 0.9647 -1.2271 0
M  V30 10 C -0.3248 1.2928 1.145 0
M  V30 11 C 0.6367 2.2096 -1.2869 0
M  V30 12 C 0.2918 2.5463 1.0756 0
M  V30 13 O 1.1099 2.6609 -2.4863 0
M  V30 14 C 0.7709 2.9968 -0.147 0
M  V30 15 O 1.382 4.213 -0.2812 0
M  V30 16 H 1.1901 -3.5018 -1.8214 0
M  V30 17 H 0.3346 -1.6258 1.5489 0
M  V30 18 H -1.2731 -3.6417 0.1875 0
M  V30 19 H -0.377 -3.8259 1.5157 0
M  V30 20 H -1.4758 -1.1667 -0.921 0
M  V30 21 H -2.4082 -1.6935 1.2501 0
M  V30 22 H -0.063 0.3769 -2.1363 0
M  V30 23 H -0.7126 0.9437 2.101 0
M  V30 24 H 0.3803 3.145 1.976 0
M  V30 25 H 1.4904 3.538 -2.2802 0
M  V30 26 H 1.3876 4.642 0.5916 0
M  V30 END ATOM
M  V30 BEGIN BOND
M  V30 1 2 1 2
M  V30 2 1 2 3
M  V30 3 1 2 4
M  V30 4 1 4 5
M  V30 5 1 4 6
M  V30 6 1 6 7
M  V30 7 1 6 8
M  V30 8 2 8 9
M  V30 9 1 8 10
M  V30 10 1 9 11
M  V30 11 2 10 12
M  V30 12 1 11 13
M  V30 13 2 11 14
M  V30 14 1 14 15
M  V30 15 1 12 14
M  V30 16 1 3 16
M  V30 17 1 4 17
M  V30 18 1 5 18
M  V30 19 1 5 19
M  V30 20 1 6 20
M  V30 21 1 7 21
M  V30 22 1 9 22
M  V30 23 1 10 23
M  V30 24 1 12 24
M  V30 25 1 13 25
M  V30 26 1 15 26
M  V30 END BOND
M  V30 END CTAB
M  END
>  <level_0>
5355

>  <index>
5355

>  <NO.>
5356

>  <Name>
droxidopa

>  <SMILES>
NC(C(=O)O)C(O)c1ccc(O)c(O)c1

>  <logBB>


>  <Class>
1

>  <MW>
213.06

>  <nHBAcc>
5

>  <nHBDon>
5

>  <SLogP>
-0.46

>  <TopoPSA>
124.01

>  <MMFF94 Energy>
55.537

$$$$
NC(CCC(=O)O)C(=O)O
Actelion Java MolfileCreator 2.0

  0  0  0  0  0  0              0 V3000
M  V30 BEGIN CTAB
M  V30 COUNTS 19 18 0 0 0
M  V30 BEGIN ATOM
M  V30 1 O 2.0848 0.6173 -0.9261 0
M  V30 2 C 1.8248 0.8463 0.2432 0
M  V30 3 O 2.6541 1.627 0.9756 0
M  V30 4 C 0.6369 0.2997 1.057 0 CFG=1
M  V30 5 N 0.3385 1.2081 2.1926 0
M  V30 6 C -0.6275 0.1564 0.203 0
M  V30 7 C -0.5809 -1.0639 -0.7199 0
M  V30 8 C -1.8587 -1.2075 -1.5009 0
M  V30 9 O -2.7628 -0.3966 -1.601 0
M  V30 10 O -1.9228 -2.3884 -2.1465 0
M  V30 11 H 3.3596 1.8769 0.342 0
M  V30 12 H 0.9396 -0.6676 1.4723 0
M  V30 13 H 0.0125 2.1019 1.8224 0
M  V30 14 H 1.2326 1.4303 2.6415 0
M  V30 15 H -0.7882 1.0645 -0.3933 0
M  V30 16 H -1.5056 0.0543 0.8556 0
M  V30 17 H 0.2393 -0.9877 -1.4384 0
M  V30 18 H -0.4441 -1.9694 -0.1182 0
M  V30 19 H -2.7796 -2.3529 -2.6213 0
M  V30 END ATOM
M  V30 BEGIN BOND
M  V30 1 2 1 2
M  V30 2 1 2 3
M  V30 3 1 2 4
M  V30 4 1 4 5
M  V30 5 1 4 6
M  V30 6 1 6 7
M  V30 7 1 7 8
M  V30 8 2 8 9
M  V30 9 1 8 10
M  V30 10 1 3 11
M  V30 11 1 4 12
M  V30 12 1 5 13
M  V30 13 1 5 14
M  V30 14 1 6 15
M  V30 15 1 6 16
M  V30 16 1 7 17
M  V30 17 1 7 18
M  V30 18 1 10 19
M  V30 END BOND
M  V30 BEGIN COLLECTION
M  V30 MDLV30/STERAC1 ATOMS=(1 4)
M  V30 END COLLECTION
M  V30 END CTAB
M  END
>  <level_0>
5356

>  <index>
5356

>  <NO.>
5357

>  <Name>
glutamic acid

>  <SMILES>
NC(CCC(=O)O)C(=O)O

>  <logBB>


>  <Class>
-1

>  <MW>
147.05

>  <nHBAcc>
3

>  <nHBDon>
3

>  <SLogP>
-0.74

>  <TopoPSA>
100.62

>  <MMFF94 Energy>
-8.4931

$$$$
NC(CSCC(=O)O)C(=O)O
Actelion Java MolfileCreator 2.0

  0  0  0  0  0  0              0 V3000
M  V30 BEGIN CTAB
M  V30 COUNTS 20 19 0 0 0
M  V30 BEGIN ATOM
M  V30 1 S -1.6823 -0.08 0.08 0
M  V30 2 C -0.5743 1.2808 0.5638 0
M  V30 3 C -0.6145 -0.9626 -1.1266 0
M  V30 4 C -1.3755 2.3986 1.1828 0
M  V30 5 C 0.6057 -1.7139 -0.5623 0 CFG=2
M  V30 6 O -1.7276 2.485 2.3485 0
M  V30 7 O -1.721 3.355 0.2952 0
M  V30 8 N 0.4048 -2.3103 0.7779 0
M  V30 9 C 1.8318 -0.8015 -0.5675 0
M  V30 10 O 2.2785 -0.1653 0.3746 0
M  V30 11 O 2.4048 -0.7032 -1.7848 0
M  V30 12 H -0.0266 1.6692 -0.3002 0
M  V30 13 H 0.1489 0.9381 1.3079 0
M  V30 14 H -1.2763 -1.7012 -1.594 0
M  V30 15 H -0.3283 -0.2566 -1.9138 0
M  V30 16 H 0.8424 -2.5463 -1.2369 0
M  V30 17 H -2.2693 3.9743 0.822 0
M  V30 18 H -0.5575 -2.6445 0.849 0
M  V30 19 H 0.4717 -1.5643 1.4755 0
M  V30 20 H 3.1879 -0.1313 -1.6351 0
M  V30 END ATOM
M  V30 BEGIN BOND
M  V30 1 1 1 2
M  V30 2 1 1 3
M  V30 3 1 2 4
M  V30 4 1 3 5
M  V30 5 2 4 6
M  V30 6 1 4 7
M  V30 7 1 5 8
M  V30 8 1 5 9
M  V30 9 2 9 10
M  V30 10 1 9 11
M  V30 11 1 2 12
M  V30 12 1 2 13
M  V30 13 1 3 14
M  V30 14 1 3 15
M  V30 15 1 5 16
M  V30 16 1 7 17
M  V30 17 1 8 18
M  V30 18 1 8 19
M  V30 19 1 11 20
M  V30 END BOND
M  V30 BEGIN COLLECTION
M  V30 MDLV30/STERAC1 ATOMS=(1 5)
M  V30 END COLLECTION
M  V30 END CTAB
M  END
>  <level_0>
5357

>  <index>
5357

>  <NO.>
5358

>  <Name>
loviscol

>  <SMILES>
NC(CSCC(=O)O)C(=O)O

>  <logBB>


>  <Class>
-1

>  <MW>
179.03

>  <nHBAcc>
4

>  <nHBDon>
3

>  <SLogP>
-0.78

>  <TopoPSA>
100.62

>  <MMFF94 Energy>
46.054

$$$$
NC(N)=NC(N)=NCCc1ccccc1
Actelion Java MolfileCreator 2.0

  0  0  0  0  0  0              0 V3000
M  V30 BEGIN CTAB
M  V30 COUNTS 30 30 0 0 0
M  V30 BEGIN ATOM
M  V30 1 N 2.7587 -0.9189 0.3827 0
M  V30 2 C 2.0952 -1.2074 1.5336 0
M  V30 3 C 2.7112 -1.7794 -0.5774 0
M  V30 4 N 0.8757 -0.8469 1.7498 0
M  V30 5 N 2.7521 -1.8781 2.5007 0
M  V30 6 N 3.3658 -1.529 -1.7255 0
M  V30 7 N 2.0714 -2.9647 -0.6157 0
M  V30 8 C 0.2103 -0.0663 0.7021 0
M  V30 9 C -1.1254 0.4392 1.2532 0
M  V30 10 C -1.8995 1.2315 0.2282 0
M  V30 11 C -1.6593 2.602 0.0615 0
M  V30 12 C -2.8486 0.6029 -0.5885 0
M  V30 13 C -2.363 3.3318 -0.8977 0
M  V30 14 C -3.5518 1.3343 -1.5471 0
M  V30 15 C -3.3096 2.6983 -1.7009 0
M  V30 16 H 2.2969 -2.0021 3.3907 0
M  V30 17 H 3.7348 -2.0645 2.3872 0
M  V30 18 H 3.4438 -2.1929 -2.4765 0
M  V30 19 H 3.8685 -0.6543 -1.7938 0
M  V30 20 H 1.5029 -3.2451 0.1741 0
M  V30 21 H 1.9709 -3.4896 -1.4685 0
M  V30 22 H 0.8247 0.7904 0.3977 0
M  V30 23 H 0.0268 -0.6936 -0.1784 0
M  V30 24 H -1.733 -0.4069 1.6 0
M  V30 25 H -0.9553 1.0601 2.1426 0
M  V30 26 H -0.9201 3.1069 0.6796 0
M  V30 27 H -3.0447 -0.4613 -0.4807 0
M  V30 28 H -2.1711 4.3946 -1.0182 0
M  V30 29 H -4.2882 0.8392 -2.1742 0
M  V30 30 H -3.8572 3.2672 -2.4473 0
M  V30 END ATOM
M  V30 BEGIN BOND
M  V30 1 1 1 2
M  V30 2 2 1 3
M  V30 3 2 2 4
M  V30 4 1 2 5
M  V30 5 1 3 6
M  V30 6 1 3 7
M  V30 7 1 4 8
M  V30 8 1 8 9
M  V30 9 1 9 10
M  V30 10 2 10 11
M  V30 11 1 10 12
M  V30 12 1 11 13
M  V30 13 2 12 14
M  V30 14 2 13 15
M  V30 15 1 14 15
M  V30 16 1 5 16
M  V30 17 1 5 17
M  V30 18 1 6 18
M  V30 19 1 6 19
M  V30 20 1 7 20
M  V30 21 1 7 21
M  V30 22 1 8 22
M  V30 23 1 8 23
M  V30 24 1 9 24
M  V30 25 1 9 25
M  V30 26 1 11 26
M  V30 27 1 12 27
M  V30 28 1 13 28
M  V30 29 1 14 29
M  V30 30 1 15 30
M  V30 END BOND
M  V30 END CTAB
M  END
>  <level_0>
5360

>  <index>
5360

>  <NO.>
5361

>  <Name>
phenformin

>  <SMILES>
NC(N)=NC(N)=NCCc1ccccc1

>  <logBB>


>  <Class>
-1

>  <MW>
205.13

>  <nHBAcc>
1

>  <nHBDon>
3

>  <SLogP>
-0.18

>  <TopoPSA>
102.78

>  <MMFF94 Energy>
-184.31

$$$$
NC1C(O)OC(CO)C(O)C1O
Actelion Java MolfileCreator 2.0

  0  0  0  0  0  0              0 V3000
M  V30 BEGIN CTAB
M  V30 COUNTS 25 25 0 0 0
M  V30 BEGIN ATOM
M  V30 1 O 1.0211 -0.5497 -0.6282 0
M  V30 2 C 1.1871 0.8611 -0.77 0
M  V30 3 C -0.3713 -0.9131 -0.5312 0
M  V30 4 O 2.5808 1.1136 -0.9065 0
M  V30 5 C 0.664 1.6001 0.4931 0
M  V30 6 C -1.0169 -0.2906 0.7186 0
M  V30 7 C -0.4406 -2.4435 -0.4835 0
M  V30 8 N 1.4863 1.268 1.6904 0
M  V30 9 C -0.8096 1.2311 0.7136 0
M  V30 10 O -2.4229 -0.5646 0.749 0
M  V30 11 O 0.2012 -2.9898 -1.6378 0
M  V30 12 O -1.6087 1.809 -0.3329 0
M  V30 13 H 0.6815 1.2154 -1.6764 0
M  V30 14 H -0.8783 -0.584 -1.448 0
M  V30 15 H 2.812 0.7776 -1.788 0
M  V30 16 H 0.7554 2.6801 0.3251 0
M  V30 17 H -0.5625 -0.7208 1.6195 0
M  V30 18 H 0.0848 -2.8349 0.3938 0
M  V30 19 H -1.474 -2.8014 -0.4657 0
M  V30 20 H 1.7129 0.2701 1.6362 0
M  V30 21 H 2.4043 1.6949 1.5194 0
M  V30 22 H -1.1839 1.6627 1.6495 0
M  V30 23 H -2.7395 -0.3438 1.6449 0
M  V30 24 H 1.0658 -2.539 -1.6907 0
M  V30 25 H -2.4762 1.358 -0.2878 0
M  V30 END ATOM
M  V30 BEGIN BOND
M  V30 1 1 1 2
M  V30 2 1 1 3
M  V30 3 1 2 4
M  V30 4 1 2 5
M  V30 5 1 3 6
M  V30 6 1 3 7
M  V30 7 1 5 8
M  V30 8 1 5 9
M  V30 9 1 6 10
M  V30 10 1 7 11
M  V30 11 1 9 12
M  V30 12 1 6 9
M  V30 13 1 2 13
M  V30 14 1 3 14
M  V30 15 1 4 15
M  V30 16 1 5 16
M  V30 17 1 6 17
M  V30 18 1 7 18
M  V30 19 1 7 19
M  V30 20 1 8 20
M  V30 21 1 8 21
M  V30 22 1 9 22
M  V30 23 1 10 23
M  V30 24 1 11 24
M  V30 25 1 12 25
M  V30 END BOND
M  V30 END CTAB
M  END
>  <level_0>
5361

>  <index>
5361

>  <NO.>
5362

>  <Name>
d-2-galactosamine

>  <SMILES>
NC1C(O)OC(CO)C(O)C1O

>  <logBB>


>  <Class>
-1

>  <MW>
179.08

>  <nHBAcc>
6

>  <nHBDon>
5

>  <SLogP>
-3.25

>  <TopoPSA>
116.17

>  <MMFF94 Energy>
89.423

$$$$
NCCC(O)(P(=O)(O)O)P(=O)(O)O
Actelion Java MolfileCreator 2.0

  0  0  0  0  0  0              0 V3000
M  V30 BEGIN CTAB
M  V30 COUNTS 24 23 0 0 0
M  V30 BEGIN ATOM
M  V30 1 P -1.5679 0.4949 -1.2376 0
M  V30 2 O -1.7191 1.9733 -1.3515 0
M  V30 3 O -2.9714 -0.2647 -1.0982 0
M  V30 4 O -1.119 -0.1302 -2.6581 0
M  V30 5 C -0.3827 -0.245 -0.0589 0
M  V30 6 P -0.7818 -0.0459 1.6999 0
M  V30 7 O -0.377 -1.6786 -0.3467 0
M  V30 8 C 1.0269 0.2873 -0.3944 0
M  V30 9 O 6.0E-4 -0.815 2.7167 0
M  V30 10 O -2.3515 -0.3057 1.8935 0
M  V30 11 O -0.7091 1.5239 2.0193 0
M  V30 12 C 2.1448 -0.3273 0.4434 0
M  V30 13 N 3.4397 0.141 -0.0474 0
M  V30 14 H -3.7055 0.1853 -1.555 0
M  V30 15 H -1.5336 0.3363 -3.4094 0
M  V30 16 H -0.6521 -1.7717 -1.282 0
M  V30 17 H 1.0345 1.3775 -0.271 0
M  V30 18 H 1.2334 0.0872 -1.4538 0
M  V30 19 H -2.5934 -0.4678 2.824 0
M  V30 20 H -0.702 1.7193 2.9751 0
M  V30 21 H 2.1176 -1.4207 0.4038 0
M  V30 22 H 2.0553 -0.0192 1.488 0
M  V30 23 H 4.1759 -0.2583 0.5353 0
M  V30 24 H 3.6007 -0.2243 -0.9856 0
M  V30 END ATOM
M  V30 BEGIN BOND
M  V30 1 2 1 2
M  V30 2 1 1 3
M  V30 3 1 1 4
M  V30 4 1 1 5
M  V30 5 1 5 6
M  V30 6 1 5 7
M  V30 7 1 5 8
M  V30 8 2 6 9
M  V30 9 1 6 10
M  V30 10 1 6 11
M  V30 11 1 8 12
M  V30 12 1 12 13
M  V30 13 1 3 14
M  V30 14 1 4 15
M  V30 15 1 7 16
M  V30 16 1 8 17
M  V30 17 1 8 18
M  V30 18 1 10 19
M  V30 19 1 11 20
M  V30 20 1 12 21
M  V30 21 1 12 22
M  V30 22 1 13 23
M  V30 23 1 13 24
M  V30 END BOND
M  V30 END CTAB
M  END
>  <level_0>
5363

>  <index>
5363

>  <NO.>
5364

>  <Name>
pamidronate

>  <SMILES>
NCCC(O)(P(=O)(O)O)P(=O)(O)O

>  <logBB>


>  <Class>
-1

>  <MW>
235.0

>  <nHBAcc>
4

>  <nHBDon>
6

>  <SLogP>
-1.66

>  <TopoPSA>
161.31

>  <MMFF94 Energy>
-164.3

$$$$
NCCCC(O)(P(=O)(O)O)P(=O)(O)O
Actelion Java MolfileCreator 2.0

  0  0  0  0  0  0              0 V3000
M  V30 BEGIN CTAB
M  V30 COUNTS 27 26 0 0 0
M  V30 BEGIN ATOM
M  V30 1 P 1.8857 1.7216 0.4097 0
M  V30 2 O 2.659 1.3372 1.6285 0
M  V30 3 O 1.6499 3.3065 0.3287 0
M  V30 4 O 2.7806 1.5099 -0.911 0
M  V30 5 C 0.2876 0.8847 0.1064 0
M  V30 6 P -0.8696 0.9933 1.5112 0
M  V30 7 O -0.3482 1.5428 -1.0298 0
M  V30 8 C 0.5533 -0.5823 -0.296 0
M  V30 9 O -0.8312 -0.0364 2.5893 0
M  V30 10 O -2.3192 1.0142 0.7997 0
M  V30 11 O -0.8542 2.4866 2.0845 0
M  V30 12 C -0.6992 -1.3797 -0.6759 0
M  V30 13 C -0.3302 -2.7889 -1.141 0
M  V30 14 N -1.5347 -3.5448 -1.4626 0
M  V30 15 H 2.4046 3.8305 0.6497 0
M  V30 16 H 3.7105 1.7714 -0.7895 0
M  V30 17 H -1.3028 1.6006 -0.8144 0
M  V30 18 H 1.0694 -1.0876 0.5291 0
M  V30 19 H 1.2361 -0.5946 -1.1543 0
M  V30 20 H -3.0476 0.8618 1.4324 0
M  V30 21 H -1.3341 2.5908 2.9271 0
M  V30 22 H -1.3709 -1.4499 0.1867 0
M  V30 23 H -1.2461 -0.8634 -1.4738 0
M  V30 24 H 0.2291 -3.3138 -0.3589 0
M  V30 25 H 0.3071 -2.7364 -2.03 0
M  V30 26 H -1.2737 -4.487 -1.7507 0
M  V30 27 H -2.1057 -3.6527 -0.625 0
M  V30 END ATOM
M  V30 BEGIN BOND
M  V30 1 2 1 2
M  V30 2 1 1 3
M  V30 3 1 1 4
M  V30 4 1 1 5
M  V30 5 1 5 6
M  V30 6 1 5 7
M  V30 7 1 5 8
M  V30 8 2 6 9
M  V30 9 1 6 10
M  V30 10 1 6 11
M  V30 11 1 8 12
M  V30 12 1 12 13
M  V30 13 1 13 14
M  V30 14 1 3 15
M  V30 15 1 4 16
M  V30 16 1 7 17
M  V30 17 1 8 18
M  V30 18 1 8 19
M  V30 19 1 10 20
M  V30 20 1 11 21
M  V30 21 1 12 22
M  V30 22 1 12 23
M  V30 23 1 13 24
M  V30 24 1 13 25
M  V30 25 1 14 26
M  V30 26 1 14 27
M  V30 END BOND
M  V30 END CTAB
M  END
>  <level_0>
5364

>  <index>
5364

>  <NO.>
5365

>  <Name>
alendronate sodium

>  <SMILES>
NCCCC(O)(P(=O)(O)O)P(=O)(O)O

>  <logBB>


>  <Class>
-1

>  <MW>
249.02

>  <nHBAcc>
4

>  <nHBDon>
6

>  <SLogP>
-1.27

>  <TopoPSA>
161.31

>  <MMFF94 Energy>
-154.68

$$$$
NCCNCCNCCN
Actelion Java MolfileCreator 2.0

  0  0  0  0  0  0              0 V3000
M  V30 BEGIN CTAB
M  V30 COUNTS 28 27 0 0 0
M  V30 BEGIN ATOM
M  V30 1 N 0.6059 0.2272 1.6671 0
M  V30 2 C 0.4028 -0.2603 0.2966 0
M  V30 3 C 1.2901 -0.7835 2.4827 0
M  V30 4 C -0.2942 0.8073 -0.57 0
M  V30 5 C 1.5342 -0.26 3.9102 0
M  V30 6 N -0.5527 0.2967 -1.9219 0
M  V30 7 N 2.151 -1.2765 4.7628 0
M  V30 8 C -1.2257 1.3169 -2.7425 0
M  V30 9 C -1.4983 0.8021 -4.1704 0
M  V30 10 N -2.0461 -0.5611 -4.1826 0
M  V30 11 H -0.2978 0.4452 2.0852 0
M  V30 12 H 1.3694 -0.5119 -0.1568 0
M  V30 13 H -0.2093 -1.1708 0.3152 0
M  V30 14 H 0.6826 -1.6961 2.5278 0
M  V30 15 H 2.2545 -1.0417 2.0282 0
M  V30 16 H 0.3452 1.6969 -0.6242 0
M  V30 17 H -1.24 1.0995 -0.0964 0
M  V30 18 H 0.5868 0.053 4.3644 0
M  V30 19 H 2.1893 0.6178 3.8751 0
M  V30 20 H -1.19 -0.5001 -1.861 0
M  V30 21 H 2.2896 -0.8887 5.6953 0
M  V30 22 H 1.5134 -2.0638 4.8725 0
M  V30 23 H -2.1823 1.5865 -2.2773 0
M  V30 24 H -0.613 2.2235 -2.8067 0
M  V30 25 H -0.5642 0.8052 -4.7439 0
M  V30 26 H -2.1971 1.4788 -4.6734 0
M  V30 27 H -2.1906 -0.8437 -5.1514 0
M  V30 28 H -1.3149 -1.1801 -3.8276 0
M  V30 END ATOM
M  V30 BEGIN BOND
M  V30 1 1 1 2
M  V30 2 1 1 3
M  V30 3 1 2 4
M  V30 4 1 3 5
M  V30 5 1 4 6
M  V30 6 1 5 7
M  V30 7 1 6 8
M  V30 8 1 8 9
M  V30 9 1 9 10
M  V30 10 1 1 11
M  V30 11 1 2 12
M  V30 12 1 2 13
M  V30 13 1 3 14
M  V30 14 1 3 15
M  V30 15 1 4 16
M  V30 16 1 4 17
M  V30 17 1 5 18
M  V30 18 1 5 19
M  V30 19 1 6 20
M  V30 20 1 7 21
M  V30 21 1 7 22
M  V30 22 1 8 23
M  V30 23 1 8 24
M  V30 24 1 9 25
M  V30 25 1 9 26
M  V30 26 1 10 27
M  V30 27 1 10 28
M  V30 END BOND
M  V30 END CTAB
M  END
>  <level_0>
5367

>  <index>
5367

>  <NO.>
5368

>  <Name>
trientine hydrochloride

>  <SMILES>
NCCNCCNCCN

>  <logBB>


>  <Class>
-1

>  <MW>
146.15

>  <nHBAcc>
4

>  <nHBDon>
4

>  <SLogP>
-1.92

>  <TopoPSA>
76.1

>  <MMFF94 Energy>
50.441

$$$$
NCCS
Actelion Java MolfileCreator 2.0

  0  0  0  0  0  0              0 V3000
M  V30 BEGIN CTAB
M  V30 COUNTS 11 10 0 0 0
M  V30 BEGIN ATOM
M  V30 1 S 0.8648 -0.1572 -2.2026 0
M  V30 2 C -0.2196 0.3215 -0.8253 0
M  V30 3 C 0.3715 -0.1087 0.5203 0
M  V30 4 N -0.4876 0.2628 1.6463 0
M  V30 5 H 0.8048 -1.4812 -1.9958 0
M  V30 6 H -1.1989 -0.1428 -0.9816 0
M  V30 7 H -0.353 1.408 -0.8556 0
M  V30 8 H 1.3539 0.3529 0.6717 0
M  V30 9 H 0.5136 -1.195 0.5446 0
M  V30 10 H -0.615 1.2745 1.6648 0
M  V30 11 H -1.4164 -0.1395 1.5254 0
M  V30 END ATOM
M  V30 BEGIN BOND
M  V30 1 1 1 2
M  V30 2 1 2 3
M  V30 3 1 3 4
M  V30 4 1 1 5
M  V30 5 1 2 6
M  V30 6 1 2 7
M  V30 7 1 3 8
M  V30 8 1 3 9
M  V30 9 1 4 10
M  V30 10 1 4 11
M  V30 END BOND
M  V30 END CTAB
M  END
>  <level_0>
5368

>  <index>
5368

>  <NO.>
5369

>  <Name>
cysteamine

>  <SMILES>
NCCS

>  <logBB>


>  <Class>
-1

>  <MW>
77.03

>  <nHBAcc>
2

>  <nHBDon>
2

>  <SLogP>
-0.13

>  <TopoPSA>
26.02

>  <MMFF94 Energy>
15.108

$$$$
Nc1ccn(C2CSC(CO)O2)c(=O)n1
Actelion Java MolfileCreator 2.0

  0  0  0  0  0  0              0 V3000
M  V30 BEGIN CTAB
M  V30 COUNTS 26 27 0 0 0
M  V30 BEGIN ATOM
M  V30 1 S 2.9214 0.7297 1.2164 0
M  V30 2 C 2.3022 -0.9803 1.1222 0
M  V30 3 C 1.5991 1.3241 0.1504 0
M  V30 4 O 1.0042 -1.0058 0.5161 0
M  V30 5 C 2.2319 -1.5999 2.5263 0
M  V30 6 C 0.4768 0.3243 0.4439 0
M  V30 7 O 3.505 -1.654 3.1664 0
M  V30 8 N -0.6425 0.3426 -0.4942 0
M  V30 9 C -0.4065 0.1096 -1.8545 0
M  V30 10 C -1.9213 0.5411 -0.0182 0
M  V30 11 O 0.7247 -0.0936 -2.2877 0
M  V30 12 N -1.4782 0.1345 -2.7165 0
M  V30 13 C -2.972 0.5448 -0.8361 0
M  V30 14 C -2.6755 0.3306 -2.264 0
M  V30 15 N -3.6884 0.3354 -3.1716 0
M  V30 16 H 2.9884 -1.5589 0.4957 0
M  V30 17 H 1.3061 2.3506 0.3881 0
M  V30 18 H 1.9656 1.298 -0.8765 0
M  V30 19 H 1.8443 -2.6225 2.4596 0
M  V30 20 H 1.5358 -1.0504 3.1712 0
M  V30 21 H 0.0787 0.5493 1.4446 0
M  V30 22 H 3.8989 -0.7648 3.0816 0
M  V30 23 H -2.051 0.6866 1.0496 0
M  V30 24 H -3.989 0.6911 -0.5043 0
M  V30 25 H -4.6595 0.465 -2.9311 0
M  V30 26 H -3.4447 0.1757 -4.1418 0
M  V30 END ATOM
M  V30 BEGIN BOND
M  V30 1 1 1 2
M  V30 2 1 1 3
M  V30 3 1 2 4
M  V30 4 1 2 5
M  V30 5 1 3 6
M  V30 6 1 5 7
M  V30 7 1 6 8
M  V30 8 1 8 9
M  V30 9 1 8 10
M  V30 10 2 9 11
M  V30 11 1 9 12
M  V30 12 2 10 13
M  V30 13 2 12 14
M  V30 14 1 14 15
M  V30 15 1 4 6
M  V30 16 1 13 14
M  V30 17 1 2 16
M  V30 18 1 3 17
M  V30 19 1 3 18
M  V30 20 1 5 19
M  V30 21 1 5 20
M  V30 22 1 6 21
M  V30 23 1 7 22
M  V30 24 1 10 23
M  V30 25 1 13 24
M  V30 26 1 15 25
M  V30 27 1 15 26
M  V30 END BOND
M  V30 END CTAB
M  END
>  <level_0>
5380

>  <index>
5380

>  <NO.>
5381

>  <Name>
mls003373964

>  <SMILES>
Nc1ccn(C2CSC(CO)O2)c(=O)n1

>  <logBB>


>  <Class>
-1

>  <MW>
229.05

>  <nHBAcc>
6

>  <nHBDon>
2

>  <SLogP>
-0.59

>  <TopoPSA>
90.37

>  <MMFF94 Energy>
-44.909

$$$$
Nc1n[n+]([O-])c2ccccc2[n+]1[O-]
Actelion Java MolfileCreator 2.0

  0  0  0  0  0  0              0 V3000
M  V30 BEGIN CTAB
M  V30 COUNTS 19 20 0 0 0
M  V30 BEGIN ATOM
M  V30 1 O 2.4813 -1.6804 -0.3999 0 CHG=-1
M  V30 2 N 1.5586 -0.9969 0.1226 0 CHG=1
M  V30 3 N 1.678 -0.7954 1.4344 0
M  V30 4 C 0.4952 -0.4941 -0.6306 0
M  V30 5 C 0.7457 -0.0811 2.0757 0
M  V30 6 C -0.4881 0.2568 0.0333 0
M  V30 7 C 0.3798 -0.7148 -2.0224 0
M  V30 8 N -0.3609 0.4672 1.4113 0 CHG=1
M  V30 9 N 0.8914 0.1137 3.4341 0
M  V30 10 C -1.5731 0.7756 -0.7076 0
M  V30 11 C -0.6985 -0.1949 -2.7386 0
M  V30 12 O -1.2354 1.1476 2.062 0 CHG=-1
M  V30 13 C -1.6742 0.5498 -2.0812 0
M  V30 14 H 1.1408 -1.2972 -2.5427 0
M  V30 15 H 1.6832 -0.2766 3.9187 0
M  V30 16 H 0.1698 0.6591 3.8946 0
M  V30 17 H -2.3424 1.3601 -0.2018 0
M  V30 18 H -0.7768 -0.3713 -3.8097 0
M  V30 19 H -2.5167 0.9567 -2.6374 0
M  V30 END ATOM
M  V30 BEGIN BOND
M  V30 1 1 1 2
M  V30 2 2 2 3
M  V30 3 1 2 4
M  V30 4 1 3 5
M  V30 5 1 4 6
M  V30 6 2 4 7
M  V30 7 2 5 8
M  V30 8 1 5 9
M  V30 9 2 6 10
M  V30 10 1 7 11
M  V30 11 1 8 12
M  V30 12 1 10 13
M  V30 13 1 6 8
M  V30 14 2 11 13
M  V30 15 1 7 14
M  V30 16 1 9 15
M  V30 17 1 9 16
M  V30 18 1 10 17
M  V30 19 1 11 18
M  V30 20 1 13 19
M  V30 END BOND
M  V30 END CTAB
M  END
>  <level_0>
5381

>  <index>
5381

>  <NO.>
5382

>  <Name>
tirapazamine

>  <SMILES>
Nc1n[n+]([O-])c2ccccc2[n+]1[O-]

>  <logBB>


>  <Class>
-1

>  <MW>
178.05

>  <nHBAcc>
4

>  <nHBDon>
1

>  <SLogP>
-0.92

>  <TopoPSA>
92.79

>  <MMFF94 Energy>
46.628

$$$$
Nc1ncn(C2OC(CO)C(O)C2O)c(=O)n1
Actelion Java MolfileCreator 2.0

  0  0  0  0  0  0              0 V3000
M  V30 BEGIN CTAB
M  V30 COUNTS 29 30 0 0 0
M  V30 BEGIN ATOM
M  V30 1 O -1.1858 2.531 0.9485 0
M  V30 2 C -0.9518 2.254 -0.2284 0
M  V30 3 N -1.4644 2.9977 -1.2453 0
M  V30 4 N -0.2079 1.1446 -0.5414 0
M  V30 5 C -1.3795 2.554 -2.4511 0
M  V30 6 C -0.2265 0.7247 -1.8258 0
M  V30 7 C 0.364 0.3764 0.5469 0
M  V30 8 N -0.7956 1.375 -2.7751 0
M  V30 9 N -1.8913 3.2765 -3.4651 0
M  V30 10 O 1.3731 -0.5292 0.0569 0
M  V30 11 C -0.6812 -0.4594 1.3032 0
M  V30 12 C 1.0669 -1.846 0.5804 0
M  V30 13 O -1.2783 0.1992 2.4176 0
M  V30 14 C 0.1611 -1.6267 1.7801 0
M  V30 15 C 2.3642 -2.5664 0.9307 0
M  V30 16 O -0.6318 -2.7615 2.0894 0
M  V30 17 O 3.1682 -2.7041 -0.2411 0
M  V30 18 H 0.2809 -0.228 -2.0361 0
M  V30 19 H 0.8579 1.0753 1.2343 0
M  V30 20 H -2.3384 4.1594 -3.2718 0
M  V30 21 H -1.8271 2.9283 -4.4087 0
M  V30 22 H -1.4894 -0.8029 0.6462 0
M  V30 23 H 0.5515 -2.3959 -0.2172 0
M  V30 24 H -1.5221 1.1094 2.1347 0
M  V30 25 H 0.7306 -1.3519 2.6765 0
M  V30 26 H 2.9494 -1.9968 1.6601 0
M  V30 27 H 2.1697 -3.5644 1.3337 0
M  V30 28 H -1.284 -2.4644 2.7544 0
M  V30 29 H 3.2194 -1.8157 -0.6414 0
M  V30 END ATOM
M  V30 BEGIN BOND
M  V30 1 2 1 2
M  V30 2 1 2 3
M  V30 3 1 2 4
M  V30 4 2 3 5
M  V30 5 1 4 6
M  V30 6 1 4 7
M  V30 7 1 5 8
M  V30 8 1 5 9
M  V30 9 1 7 10
M  V30 10 1 7 11
M  V30 11 1 10 12
M  V30 12 1 11 13
M  V30 13 1 11 14
M  V30 14 1 12 15
M  V30 15 1 14 16
M  V30 16 1 15 17
M  V30 17 2 6 8
M  V30 18 1 12 14
M  V30 19 1 6 18
M  V30 20 1 7 19
M  V30 21 1 9 20
M  V30 22 1 9 21
M  V30 23 1 11 22
M  V30 24 1 12 23
M  V30 25 1 13 24
M  V30 26 1 14 25
M  V30 27 1 15 26
M  V30 28 1 15 27
M  V30 29 1 16 28
M  V30 30 1 17 29
M  V30 END BOND
M  V30 END CTAB
M  END
>  <level_0>
5383

>  <index>
5383

>  <NO.>
5384

>  <Name>
azacytidine, 5-

>  <SMILES>
Nc1ncn(C2OC(CO)C(O)C2O)c(=O)n1

>  <logBB>


>  <Class>
-1

>  <MW>
244.08

>  <nHBAcc>
8

>  <nHBDon>
4

>  <SLogP>
-3.17

>  <TopoPSA>
143.72

>  <MMFF94 Energy>
-142.62

$$$$
Nc1ncnc2c1ncn2CCOCP(=O)(O)O
Actelion Java MolfileCreator 2.0

  0  0  0  0  0  0              0 V3000
M  V30 BEGIN CTAB
M  V30 COUNTS 30 31 0 0 0
M  V30 BEGIN ATOM
M  V30 1 P -1.8581 1.7773 -0.7267 0
M  V30 2 O -1.9128 0.9146 0.49 0
M  V30 3 O -1.6184 0.9183 -2.0584 0
M  V30 4 O -3.2918 2.425 -1.0395 0
M  V30 5 C -0.6658 3.1143 -0.7628 0
M  V30 6 O 0.6647 2.5778 -0.8511 0
M  V30 7 C 1.1767 2.1322 0.4085 0
M  V30 8 C 2.1462 0.9794 0.1661 0
M  V30 9 N 1.4409 -0.241 -0.1735 0
M  V30 10 C 1.0004 -1.1857 0.7093 0
M  V30 11 C 1.0592 -0.6319 -1.4292 0
M  V30 12 N 1.1613 -1.2046 2.0425 0
M  V30 13 C 0.3373 -2.118 -0.0726 0
M  V30 14 N 0.3743 -1.7577 -1.4079 0
M  V30 15 C 0.5682 -2.2926 2.5758 0
M  V30 16 C -0.2294 -3.2135 0.6001 0
M  V30 17 N -0.0997 -3.284 1.9447 0
M  V30 18 N -0.9069 -4.2237 -0.0443 0
M  V30 19 H -1.9195 -0.0081 -1.9755 0
M  V30 20 H -4.0205 1.791 -0.9047 0
M  V30 21 H -0.759 3.7784 0.1025 0
M  V30 22 H -0.8293 3.7093 -1.6661 0
M  V30 23 H 0.3777 1.8356 1.095 0
M  V30 24 H 1.7128 2.9754 0.857 0
M  V30 25 H 2.8293 1.2004 -0.6616 0
M  V30 26 H 2.7426 0.7801 1.0626 0
M  V30 27 H 1.2831 -0.0464 -2.3129 0
M  V30 28 H 0.6385 -2.388 3.6556 0
M  V30 29 H -0.9802 -4.2028 -1.0504 0
M  V30 30 H -1.2663 -4.9824 0.5116 0
M  V30 END ATOM
M  V30 BEGIN BOND
M  V30 1 2 1 2
M  V30 2 1 1 3
M  V30 3 1 1 4
M  V30 4 1 1 5
M  V30 5 1 5 6
M  V30 6 1 6 7
M  V30 7 1 7 8
M  V30 8 1 8 9
M  V30 9 1 9 10
M  V30 10 1 9 11
M  V30 11 2 10 12
M  V30 12 1 10 13
M  V30 13 2 11 14
M  V30 14 1 12 15
M  V30 15 2 13 16
M  V30 16 2 15 17
M  V30 17 1 16 18
M  V30 18 1 13 14
M  V30 19 1 16 17
M  V30 20 1 3 19
M  V30 21 1 4 20
M  V30 22 1 5 21
M  V30 23 1 5 22
M  V30 24 1 7 23
M  V30 25 1 7 24
M  V30 26 1 8 25
M  V30 27 1 8 26
M  V30 28 1 11 27
M  V30 29 1 15 28
M  V30 30 1 18 29
M  V30 31 1 18 30
M  V30 END BOND
M  V30 END CTAB
M  END
>  <level_0>
5384

>  <index>
5384

>  <NO.>
5385

>  <Name>
adefovir

>  <SMILES>
Nc1ncnc2c1ncn2CCOCP(=O)(O)O

>  <logBB>


>  <Class>
-1

>  <MW>
273.06

>  <nHBAcc>
6

>  <nHBDon>
3

>  <SLogP>
-0.44

>  <TopoPSA>
136.38

>  <MMFF94 Energy>
-59.306

$$$$
O=C(CO)C(O)C(OC1OC(CO)C(O)C(O)C1O)C(O)CO
Actelion Java MolfileCreator 2.0

  0  0  0  0  0  0              0 V3000
M  V30 BEGIN CTAB
M  V30 COUNTS 45 45 0 0 0
M  V30 BEGIN ATOM
M  V30 1 O 1.1865 3.1664 3.6421 0
M  V30 2 C 1.3194 2.8169 2.4655 0
M  V30 3 C 1.3582 1.347 2.0213 0
M  V30 4 C 1.4883 3.8647 1.3689 0
M  V30 5 O 1.4741 0.4229 3.1044 0
M  V30 6 C 0.1623 0.9573 1.1295 0
M  V30 7 O 1.7661 5.1495 1.9065 0
M  V30 8 O 0.306 -0.4514 0.8585 0
M  V30 9 C -1.2304 1.2245 1.7401 0
M  V30 10 C -0.2003 -0.8337 -0.4257 0
M  V30 11 O -1.4876 2.6345 1.745 0
M  V30 12 C -1.4601 0.661 3.1473 0
M  V30 13 O 0.8258 -0.5919 -1.3898 0
M  V30 14 C -0.5736 -2.3252 -0.3595 0
M  V30 15 O -2.8364 0.8776 3.4877 0
M  V30 16 C 0.4479 -0.9966 -2.7183 0
M  V30 17 O -1.6983 -2.5303 0.5133 0
M  V30 18 C -0.9329 -2.8363 -1.7521 0
M  V30 19 C 0.1656 -2.5051 -2.7651 0
M  V30 20 C 1.5999 -0.6095 -3.6508 0
M  V30 21 O -1.1364 -4.2567 -1.6912 0
M  V30 22 O -0.2893 -2.9358 -4.0505 0
M  V30 23 O 1.8312 0.7957 -3.5706 0
M  V30 24 H 2.2835 1.2186 1.4462 0
M  V30 25 H 2.3258 3.5829 0.7257 0
M  V30 26 H 0.5756 3.929 0.7733 0
M  V30 27 H 1.3615 -0.4639 2.7106 0
M  V30 28 H 0.2511 1.5279 0.195 0
M  V30 29 H 1.3605 5.159 2.7982 0
M  V30 30 H -1.9974 0.7923 1.0872 0
M  V30 31 H -1.0893 -0.2401 -0.6736 0
M  V30 32 H -2.2278 2.7601 2.3773 0
M  V30 33 H -0.8743 1.1995 3.8963 0
M  V30 34 H -1.2438 -0.4094 3.2103 0
M  V30 35 H 0.2572 -2.9069 0.0582 0
M  V30 36 H -3.3325 0.1046 3.1631 0
M  V30 37 H -0.4384 -0.4205 -3.0154 0
M  V30 38 H -1.93 -3.4753 0.4058 0
M  V30 39 H -1.8936 -2.4149 -2.0745 0
M  V30 40 H 1.0642 -3.084 -2.5174 0
M  V30 41 H 2.529 -1.1112 -3.3611 0
M  V30 42 H 1.3756 -0.8549 -4.6925 0
M  V30 43 H -1.2665 -4.5379 -2.6195 0
M  V30 44 H 0.4818 -3.006 -4.6421 0
M  V30 45 H 1.9396 0.9944 -2.6214 0
M  V30 END ATOM
M  V30 BEGIN BOND
M  V30 1 2 1 2
M  V30 2 1 2 3
M  V30 3 1 2 4
M  V30 4 1 3 5
M  V30 5 1 3 6
M  V30 6 1 4 7
M  V30 7 1 6 8
M  V30 8 1 6 9
M  V30 9 1 8 10
M  V30 10 1 9 11
M  V30 11 1 9 12
M  V30 12 1 10 13
M  V30 13 1 10 14
M  V30 14 1 12 15
M  V30 15 1 13 16
M  V30 16 1 14 17
M  V30 17 1 14 18
M  V30 18 1 16 19
M  V30 19 1 16 20
M  V30 20 1 18 21
M  V30 21 1 19 22
M  V30 22 1 20 23
M  V30 23 1 18 19
M  V30 24 1 3 24
M  V30 25 1 4 25
M  V30 26 1 4 26
M  V30 27 1 5 27
M  V30 28 1 6 28
M  V30 29 1 7 29
M  V30 30 1 9 30
M  V30 31 1 10 31
M  V30 32 1 11 32
M  V30 33 1 12 33
M  V30 34 1 12 34
M  V30 35 1 14 35
M  V30 36 1 15 36
M  V30 37 1 16 37
M  V30 38 1 17 38
M  V30 39 1 18 39
M  V30 40 1 19 40
M  V30 41 1 20 41
M  V30 42 1 20 42
M  V30 43 1 21 43
M  V30 44 1 22 44
M  V30 45 1 23 45
M  V30 END BOND
M  V30 END CTAB
M  END
>  <level_0>
5386

>  <index>
5386

>  <NO.>
5387

>  <Name>
lactulose

>  <SMILES>
O=C(CO)C(O)C(OC1OC(CO)C(O)C(O)C1O)C(O)CO

>  <logBB>


>  <Class>
-1

>  <MW>
342.12

>  <nHBAcc>
11

>  <nHBDon>
8

>  <SLogP>
-5.55

>  <TopoPSA>
197.37

>  <MMFF94 Energy>
186.64

$$$$
O=C(O)C(S)C(S)C(=O)O
Actelion Java MolfileCreator 2.0

  0  0  0  0  0  0              0 V3000
M  V30 BEGIN CTAB
M  V30 COUNTS 16 15 0 0 0
M  V30 BEGIN ATOM
M  V30 1 S -1.435 -1.6884 -1.435 0
M  V30 2 C -0.7223 -0.9718 0.1115 0
M  V30 3 C 0.7695 -1.258 0.1442 0
M  V30 4 C -1.0245 0.5265 0.2137 0
M  V30 5 O 1.5204 -1.3722 -0.8113 0
M  V30 6 O 1.2553 -1.3297 1.3998 0
M  V30 7 S -1.197 1.0498 1.9772 0
M  V30 8 C 0.0499 1.3733 -0.4476 0
M  V30 9 O 1.0325 1.866 0.0832 0
M  V30 10 O -0.1424 1.5091 -1.775 0
M  V30 11 H -0.5272 -1.1567 -2.2725 0
M  V30 12 H -1.2075 -1.5404 0.9129 0
M  V30 13 H -1.994 0.7777 -0.2311 0
M  V30 14 H 2.2184 -1.4838 1.2856 0
M  V30 15 H 0.1142 1.0028 2.2711 0
M  V30 16 H 0.623 2.0408 -2.0843 0
M  V30 END ATOM
M  V30 BEGIN BOND
M  V30 1 1 1 2
M  V30 2 1 2 3
M  V30 3 1 2 4
M  V30 4 2 3 5
M  V30 5 1 3 6
M  V30 6 1 4 7
M  V30 7 1 4 8
M  V30 8 2 8 9
M  V30 9 1 8 10
M  V30 10 1 1 11
M  V30 11 1 2 12
M  V30 12 1 4 13
M  V30 13 1 6 14
M  V30 14 1 7 15
M  V30 15 1 10 16
M  V30 END BOND
M  V30 END CTAB
M  END
>  <level_0>
5391

>  <index>
5391

>  <NO.>
5392

>  <Name>
succimer

>  <SMILES>
O=C(O)C(S)C(S)C(=O)O

>  <logBB>


>  <Class>
-1

>  <MW>
181.97

>  <nHBAcc>
4

>  <nHBDon>
4

>  <SLogP>
-0.25

>  <TopoPSA>
74.6

>  <MMFF94 Energy>
-6.7328

$$$$
O=C(O)CN(CCN(CC(=O)O)CC(=O)O)CC(=O)O
Actelion Java MolfileCreator 2.0

  0  0  0  0  0  0              0 V3000
M  V30 BEGIN CTAB
M  V30 COUNTS 36 35 0 0 0
M  V30 BEGIN ATOM
M  V30 1 O 1.4119 -0.9411 -3.6114 0
M  V30 2 C 0.2233 -0.6954 -3.4904 0
M  V30 3 O -0.4078 0.0275 -4.4444 0
M  V30 4 C -0.7361 -1.123 -2.3824 0
M  V30 5 N -0.03 -1.5388 -1.149 0
M  V30 6 C -0.915 -2.2825 -0.2274 0
M  V30 7 C 0.6569 -0.4165 -0.4711 0
M  V30 8 C -1.2326 -3.693 -0.7199 0
M  V30 9 C -0.2407 0.6349 0.239 0
M  V30 10 O -0.9717 -4.2083 -1.794 0
M  V30 11 O -1.9226 -4.3972 0.2065 0
M  V30 12 N 0.4813 1.786 0.8169 0
M  V30 13 C 1.4235 1.4135 1.8973 0
M  V30 14 C -0.4468 2.8618 1.2421 0
M  V30 15 C 2.8197 1.1384 1.3492 0
M  V30 16 C -1.3611 2.5044 2.4102 0
M  V30 17 O 3.3167 1.5483 0.3132 0
M  V30 18 O 3.5502 0.3687 2.1854 0
M  V30 19 O -1.3341 1.5086 3.1152 0
M  V30 20 O -2.277 3.4693 2.6442 0
M  V30 21 H 0.3107 0.2147 -5.0853 0
M  V30 22 H -1.3122 -1.9527 -2.8047 0
M  V30 23 H -1.4355 -0.306 -2.1773 0
M  V30 24 H -0.4072 -2.4114 0.7365 0
M  V30 25 H -1.8588 -1.7493 -0.0661 0
M  V30 26 H 1.3133 0.0977 -1.1825 0
M  V30 27 H 1.3312 -0.8651 0.2682 0
M  V30 28 H -0.9474 1.0242 -0.5025 0
M  V30 29 H -0.836 0.1361 1.0118 0
M  V30 30 H -2.0481 -5.2705 -0.2216 0
M  V30 31 H 1.5536 2.2374 2.6101 0
M  V30 32 H 1.0671 0.5375 2.4511 0
M  V30 33 H 0.1356 3.7458 1.5274 0
M  V30 34 H -1.074 3.1504 0.3903 0
M  V30 35 H 4.4047 0.2717 1.7137 0
M  V30 36 H -2.7859 3.1359 3.4132 0
M  V30 END ATOM
M  V30 BEGIN BOND
M  V30 1 2 1 2
M  V30 2 1 2 3
M  V30 3 1 2 4
M  V30 4 1 4 5
M  V30 5 1 5 6
M  V30 6 1 5 7
M  V30 7 1 6 8
M  V30 8 1 7 9
M  V30 9 2 8 10
M  V30 10 1 8 11
M  V30 11 1 9 12
M  V30 12 1 12 13
M  V30 13 1 12 14
M  V30 14 1 13 15
M  V30 15 1 14 16
M  V30 16 2 15 17
M  V30 17 1 15 18
M  V30 18 2 16 19
M  V30 19 1 16 20
M  V30 20 1 3 21
M  V30 21 1 4 22
M  V30 22 1 4 23
M  V30 23 1 6 24
M  V30 24 1 6 25
M  V30 25 1 7 26
M  V30 26 1 7 27
M  V30 27 1 9 28
M  V30 28 1 9 29
M  V30 29 1 11 30
M  V30 30 1 13 31
M  V30 31 1 13 32
M  V30 32 1 14 33
M  V30 33 1 14 34
M  V30 34 1 18 35
M  V30 35 1 20 36
M  V30 END BOND
M  V30 END CTAB
M  END
>  <level_0>
5397

>  <index>
5397

>  <NO.>
5398

>  <Name>
edta

>  <SMILES>
O=C(O)CN(CCN(CC(=O)O)CC(=O)O)CC(=O)O

>  <logBB>


>  <Class>
-1

>  <MW>
292.09

>  <nHBAcc>
6

>  <nHBDon>
4

>  <SLogP>
-2.07

>  <TopoPSA>
155.68

>  <MMFF94 Energy>
115.52

$$$$
O=CC(O)C(O)C(O)CO
Actelion Java MolfileCreator 2.0

  0  0  0  0  0  0              0 V3000
M  V30 BEGIN CTAB
M  V30 COUNTS 20 19 0 0 0
M  V30 BEGIN ATOM
M  V30 1 O 1.8653 -0.7768 2.9547 0
M  V30 2 C 0.8874 -0.6313 2.22 0
M  V30 3 C 0.9165 -1.0384 0.7545 0
M  V30 4 O 2.2675 -1.404 0.4017 0
M  V30 5 C 0.4984 0.1077 -0.1797 0
M  V30 6 O 1.0574 -0.1247 -1.4889 0
M  V30 7 C -1.0317 0.2609 -0.3001 0
M  V30 8 O -1.6006 0.5129 0.9837 0
M  V30 9 C -1.4035 1.3874 -1.2807 0
M  V30 10 O -1.0854 1.0485 -2.6235 0
M  V30 11 H -0.0668 -0.2588 2.6211 0
M  V30 12 H 0.2922 -1.9261 0.6154 0
M  V30 13 H 2.7101 -1.6432 1.2447 0
M  V30 14 H 0.9355 1.045 0.1871 0
M  V30 15 H 1.9111 -0.5825 -1.3122 0
M  V30 16 H -1.4493 -0.6795 -0.6809 0
M  V30 17 H -2.5614 0.6296 0.8557 0
M  V30 18 H -2.4781 1.5931 -1.2325 0
M  V30 19 H -0.8924 2.3202 -1.018 0
M  V30 20 H -0.1724 0.6839 -2.6104 0
M  V30 END ATOM
M  V30 BEGIN BOND
M  V30 1 2 1 2
M  V30 2 1 2 3
M  V30 3 1 3 4
M  V30 4 1 3 5
M  V30 5 1 5 6
M  V30 6 1 5 7
M  V30 7 1 7 8
M  V30 8 1 7 9
M  V30 9 1 9 10
M  V30 10 1 2 11
M  V30 11 1 3 12
M  V30 12 1 4 13
M  V30 13 1 5 14
M  V30 14 1 6 15
M  V30 15 1 7 16
M  V30 16 1 8 17
M  V30 17 1 9 18
M  V30 18 1 9 19
M  V30 19 1 10 20
M  V30 END BOND
M  V30 END CTAB
M  END
>  <level_0>
5415

>  <index>
5415

>  <NO.>
5416

>  <Name>
xylose

>  <SMILES>
O=CC(O)C(O)C(O)CO

>  <logBB>


>  <Class>
-1

>  <MW>
150.05

>  <nHBAcc>
5

>  <nHBDon>
4

>  <SLogP>
-2.74

>  <TopoPSA>
97.99

>  <MMFF94 Energy>
70.876

$$$$
O=S(=O)(O)OCC1OC(OC2(COS(=O)(=O)O)OC(OS(=O)(=O)O)C(OS(=O)(=O)O)C2OS(=O)(=O)O)C(OS(=O)(=O)O)C(OS(=O)(=O)O)C1OS(=O)(=O)O
Actelion Java MolfileCreator 2.0

  0  0  0  0  0  0              0 V3000
M  V30 BEGIN CTAB
M  V30 COUNTS 74 75 0 0 0
M  V30 BEGIN ATOM
M  V30 1 S 1.9047 -0.7789 3.8988 0
M  V30 2 O 2.855 0.0751 4.5678 0
M  V30 3 O 0.5513 -0.9476 4.3986 0
M  V30 4 O 1.8356 -0.3066 2.3525 0
M  V30 5 O 2.5282 -2.2545 3.773 0
M  V30 6 C 0.8892 0.6945 1.9817 0
M  V30 7 C 0.0412 0.144 0.8291 0
M  V30 8 C 1.6389 1.9595 1.555 0
M  V30 9 O 0.8708 -0.0915 -0.3034 0
M  V30 10 O -0.511 -1.1003 1.2403 0
M  V30 11 O 0.7126 3.0383 1.4762 0
M  V30 12 C 2.3462 1.8283 0.1873 0
M  V30 13 C 1.4413 1.1062 -0.8399 0
M  V30 14 C -1.7488 -1.4909 0.6373 0
M  V30 15 S 1.1092 4.4549 2.1815 0
M  V30 16 O 3.5854 1.1396 0.3453 0
M  V30 17 C 2.1833 0.7017 -2.1185 0
M  V30 18 O -2.7753 -0.5231 0.9246 0
M  V30 19 C -1.6986 -1.595 -0.8958 0
M  V30 20 C -2.1294 -2.829 1.3256 0
M  V30 21 O 0.0932 5.4105 1.8101 0
M  V30 22 O 1.4433 4.179 3.5579 0
M  V30 23 O 2.475 4.858 1.4323 0
M  V30 24 S 4.896 2.0073 0.7824 0
M  V30 25 O 2.7047 1.8421 -2.777 0
M  V30 26 C -3.5682 -0.3068 -0.2638 0
M  V30 27 O -1.1633 -2.8169 -1.3677 0
M  V30 28 C -3.1458 -1.3613 -1.2994 0
M  V30 29 O -2.0766 -2.6608 2.7439 0
M  V30 30 O 4.4546 3.0706 1.6666 0
M  V30 31 O 5.943 1.0841 1.1398 0
M  V30 32 O 5.3259 2.6991 -0.6002 0
M  V30 33 S 4.058 1.6559 -3.6546 0
M  V30 34 O -3.2881 0.9933 -0.7469 0
M  V30 35 S -0.3913 -2.8261 -2.7957 0
M  V30 36 O -3.8974 -2.5562 -1.1519 0
M  V30 37 S -1.078 -3.6182 3.5861 0
M  V30 38 O 4.1608 2.7729 -4.5612 0
M  V30 39 O 5.1243 1.3051 -2.7371 0
M  V30 40 O 3.7326 0.3757 -4.5712 0
M  V30 41 S -4.4286 1.7113 -1.6496 0
M  V30 42 O -0.4841 -4.1586 -3.3385 0
M  V30 43 O -0.7812 -1.6513 -3.5418 0
M  V30 44 O 1.1426 -2.6389 -2.3519 0
M  V30 45 S -5.2061 -2.7899 -2.0921 0
M  V30 46 O -1.6878 -4.9217 3.6944 0
M  V30 47 O 0.2698 -3.4578 3.0657 0
M  V30 48 O -1.0863 -2.9255 5.0371 0
M  V30 49 O -3.7893 2.7579 -2.4074 0
M  V30 50 O -5.2274 0.6777 -2.2769 0
M  V30 51 O -5.3371 2.4428 -0.5468 0
M  V30 52 O -4.8415 -2.4666 -3.4507 0
M  V30 53 O -5.7856 -4.0583 -1.7256 0
M  V30 54 O -6.2024 -1.6279 -1.5992 0
M  V30 55 H 1.8473 -2.8448 3.3624 0
M  V30 56 H 0.2195 0.9267 2.8192 0
M  V30 57 H -0.7489 0.86 0.5732 0
M  V30 58 H 2.3736 2.1515 2.3423 0
M  V30 59 H 2.5533 2.8223 -0.2291 0
M  V30 60 H 0.621 1.783 -1.1156 0
M  V30 61 H 1.4893 0.1987 -2.8016 0
M  V30 62 H 2.9679 -0.0281 -1.8825 0
M  V30 63 H -1.1186 -0.7573 -1.2916 0
M  V30 64 H -3.153 -3.1313 1.0925 0
M  V30 65 H -1.4507 -3.6312 1.0144 0
M  V30 66 H 3.251 4.449 1.8927 0
M  V30 67 H -4.6145 -0.3932 0.046 0
M  V30 68 H -3.1914 -1.0028 -2.3319 0
M  V30 69 H 5.6312 2.0019 -1.2347 0
M  V30 70 H 3.4056 0.7052 -5.4355 0
M  V30 71 H 1.5001 -3.5263 -2.1366 0
M  V30 72 H -0.6484 -2.0414 4.9607 0
M  V30 73 H -4.9972 3.3552 -0.4224 0
M  V30 74 H -6.1083 -0.8497 -2.205 0
M  V30 END ATOM
M  V30 BEGIN BOND
M  V30 1 2 1 2
M  V30 2 2 1 3
M  V30 3 1 1 4
M  V30 4 1 1 5
M  V30 5 1 4 6
M  V30 6 1 6 7
M  V30 7 1 6 8
M  V30 8 1 7 9
M  V30 9 1 7 10
M  V30 10 1 8 11
M  V30 11 1 8 12
M  V30 12 1 9 13
M  V30 13 1 10 14
M  V30 14 1 11 15
M  V30 15 1 12 16
M  V30 16 1 13 17
M  V30 17 1 14 18
M  V30 18 1 14 19
M  V30 19 1 14 20
M  V30 20 2 15 21
M  V30 21 2 15 22
M  V30 22 1 15 23
M  V30 23 1 16 24
M  V30 24 1 17 25
M  V30 25 1 18 26
M  V30 26 1 19 27
M  V30 27 1 19 28
M  V30 28 1 20 29
M  V30 29 2 24 30
M  V30 30 2 24 31
M  V30 31 1 24 32
M  V30 32 1 25 33
M  V30 33 1 26 34
M  V30 34 1 27 35
M  V30 35 1 28 36
M  V30 36 1 29 37
M  V30 37 2 33 38
M  V30 38 2 33 39
M  V30 39 1 33 40
M  V30 40 1 34 41
M  V30 41 2 35 42
M  V30 42 2 35 43
M  V30 43 1 35 44
M  V30 44 1 36 45
M  V30 45 2 37 46
M  V30 46 2 37 47
M  V30 47 1 37 48
M  V30 48 2 41 49
M  V30 49 2 41 50
M  V30 50 1 41 51
M  V30 51 2 45 52
M  V30 52 2 45 53
M  V30 53 1 45 54
M  V30 54 1 12 13
M  V30 55 1 26 28
M  V30 56 1 5 55
M  V30 57 1 6 56
M  V30 58 1 7 57
M  V30 59 1 8 58
M  V30 60 1 12 59
M  V30 61 1 13 60
M  V30 62 1 17 61
M  V30 63 1 17 62
M  V30 64 1 19 63
M  V30 65 1 20 64
M  V30 66 1 20 65
M  V30 67 1 23 66
M  V30 68 1 26 67
M  V30 69 1 28 68
M  V30 70 1 32 69
M  V30 71 1 40 70
M  V30 72 1 44 71
M  V30 73 1 48 72
M  V30 74 1 51 73
M  V30 75 1 54 74
M  V30 END BOND
M  V30 END CTAB
M  END
>  <level_0>
5420

>  <index>
5420

>  <NO.>
5421

>  <Name>
sucralfate

>  <SMILES>
O=S(=O)(O)OCC1OC(OC2(COS(=O)(=O)O)OC(OS(=O)(=O)O)C(OS(=O)(=O)O)C2OS(=O)(=O)O)C(OS(=O)(=O)O)C(OS(=O)(=O)O)C1OS(=O)(=O)O

>  <logBB>


>  <Class>
-1

>  <MW>
967.76

>  <nHBAcc>
27

>  <nHBDon>
8

>  <SLogP>
-6.82

>  <TopoPSA>
536.49

>  <MMFF94 Energy>
-858.15

$$$$
O=[N+]([O-])OC1COC2C(O)COC12
Actelion Java MolfileCreator 2.0

  0  0  0  0  0  0              0 V3000
M  V30 BEGIN CTAB
M  V30 COUNTS 22 23 0 0 0
M  V30 BEGIN ATOM
M  V30 1 O 1.3781 -4.1386 0.081 0
M  V30 2 N 1.3588 -3.0238 -0.4364 0 CHG=1
M  V30 3 O 0.0706 -2.4437 -0.44 0
M  V30 4 O 2.2678 -2.3832 -0.9665 0 CHG=-1
M  V30 5 C 0.0471 -1.1359 -0.9896 0
M  V30 6 C 0.6209 -0.0564 -0.0902 0
M  V30 7 C -1.3915 -0.6605 -1.1263 0
M  V30 8 O 0.2325 -0.257 1.2861 0
M  V30 9 C -0.0878 1.1936 -0.5833 0
M  V30 10 O -1.3628 0.7762 -1.1176 0
M  V30 11 C -0.4782 0.9162 1.728 0
M  V30 12 C -0.2596 2.0029 0.6822 0
M  V30 13 O 0.9464 2.7247 0.9424 0
M  V30 14 H 0.504 -1.1024 -1.9885 0
M  V30 15 H 1.7112 0.0233 -0.1172 0
M  V30 16 H -2.0226 -1.0029 -0.2979 0
M  V30 17 H -1.8524 -1.0091 -2.0557 0
M  V30 18 H 0.4669 1.7075 -1.3745 0
M  V30 19 H -0.1097 1.1933 2.7197 0
M  V30 20 H -1.5364 0.6443 1.801 0
M  V30 21 H -1.0923 2.7113 0.6466 0
M  V30 22 H 0.8514 3.1569 1.8095 0
M  V30 END ATOM
M  V30 BEGIN BOND
M  V30 1 2 1 2
M  V30 2 1 2 3
M  V30 3 1 2 4
M  V30 4 1 3 5
M  V30 5 1 5 6
M  V30 6 1 5 7
M  V30 7 1 6 8
M  V30 8 1 6 9
M  V30 9 1 7 10
M  V30 10 1 8 11
M  V30 11 1 9 12
M  V30 12 1 12 13
M  V30 13 1 9 10
M  V30 14 1 11 12
M  V30 15 1 5 14
M  V30 16 1 6 15
M  V30 17 1 7 16
M  V30 18 1 7 17
M  V30 19 1 9 18
M  V30 20 1 11 19
M  V30 21 1 11 20
M  V30 22 1 12 21
M  V30 23 1 13 22
M  V30 END BOND
M  V30 END CTAB
M  END
>  <level_0>
5422

>  <index>
5422

>  <NO.>
5423

>  <Name>
isosorbide mononitrate

>  <SMILES>
O=[N+]([O-])OC1COC2C(O)COC12

>  <logBB>


>  <Class>
-1

>  <MW>
191.04

>  <nHBAcc>
6

>  <nHBDon>
1

>  <SLogP>
-1.28

>  <TopoPSA>
91.06

>  <MMFF94 Energy>
55.946

$$$$
O=[N+]([O-])OCC(CO[N+](=O)[O-])(CO[N+](=O)[O-])CO[N+](=O)[O-]
Actelion Java MolfileCreator 2.0

  0  0  0  0  0  0              0 V3000
M  V30 BEGIN CTAB
M  V30 COUNTS 29 28 0 0 0
M  V30 BEGIN ATOM
M  V30 1 O -1.4558 3.7237 1.0512 0
M  V30 2 N -0.2714 3.4805 1.2828 0 CHG=1
M  V30 3 O 0.2172 2.2135 0.8695 0
M  V30 4 O 0.5902 4.1687 1.822 0 CHG=-1
M  V30 5 C -0.7833 1.4145 0.2437 0
M  V30 6 C -0.1963 0.0469 -0.204 0
M  V30 7 C 1.0185 0.2924 -1.1383 0
M  V30 8 C -1.2879 -0.7381 -0.9824 0
M  V30 9 C 0.2266 -0.7903 1.0358 0
M  V30 10 O 1.5654 -0.9588 -1.5515 0
M  V30 11 O -2.4283 -0.9399 -0.1494 0
M  V30 12 O 1.3478 -0.1945 1.6837 0
M  V30 13 N 2.665 -0.8111 -2.4374 0 CHG=1
M  V30 14 N -3.4741 -1.6368 -0.8107 0 CHG=1
M  V30 15 N 1.7753 -0.9247 2.8232 0 CHG=1
M  V30 16 O 3.1445 -1.8889 -2.7777 0
M  V30 17 O 2.9802 0.3367 -2.75 0 CHG=-1
M  V30 18 O -3.2756 -1.9597 -1.9816 0
M  V30 19 O -4.453 -1.8136 -0.0911 0 CHG=-1
M  V30 20 O 1.1372 -1.9381 3.1085 0
M  V30 21 O 2.7508 -0.4194 3.3713 0 CHG=-1
M  V30 22 H -1.1689 1.9397 -0.6403 0
M  V30 23 H -1.6091 1.2471 0.9473 0
M  V30 24 H 1.7906 0.8726 -0.6179 0
M  V30 25 H 0.6821 0.8593 -2.0167 0
M  V30 26 H -0.8908 -1.7113 -1.2982 0
M  V30 27 H -1.5763 -0.1636 -1.8727 0
M  V30 28 H -0.6147 -0.8504 1.7386 0
M  V30 29 H 0.4905 -1.8063 0.7139 0
M  V30 END ATOM
M  V30 BEGIN BOND
M  V30 1 2 1 2
M  V30 2 1 2 3
M  V30 3 1 2 4
M  V30 4 1 3 5
M  V30 5 1 5 6
M  V30 6 1 6 7
M  V30 7 1 6 8
M  V30 8 1 6 9
M  V30 9 1 7 10
M  V30 10 1 8 11
M  V30 11 1 9 12
M  V30 12 1 10 13
M  V30 13 1 11 14
M  V30 14 1 12 15
M  V30 15 2 13 16
M  V30 16 1 13 17
M  V30 17 2 14 18
M  V30 18 1 14 19
M  V30 19 2 15 20
M  V30 20 1 15 21
M  V30 21 1 5 22
M  V30 22 1 5 23
M  V30 23 1 7 24
M  V30 24 1 7 25
M  V30 25 1 8 26
M  V30 26 1 8 27
M  V30 27 1 9 28
M  V30 28 1 9 29
M  V30 END BOND
M  V30 END CTAB
M  END
>  <level_0>
5423

>  <index>
5423

>  <NO.>
5424

>  <Name>
pentaerythritol tetranitrate

>  <SMILES>
O=[N+]([O-])OCC(CO[N+](=O)[O-])(CO[N+](=O)[O-])CO[N+](=O)[O-]

>  <logBB>


>  <Class>
-1

>  <MW>
316.01

>  <nHBAcc>
12

>  <nHBDon>
0

>  <SLogP>
-1.19

>  <TopoPSA>
209.48

>  <MMFF94 Energy>
-58.895

$$$$
O=[N+]([O-])OCC(CO[N+](=O)[O-])O[N+](=O)[O-]
Actelion Java MolfileCreator 2.0

  0  0  0  0  0  0              0 V3000
M  V30 BEGIN CTAB
M  V30 COUNTS 20 19 0 0 0
M  V30 BEGIN ATOM
M  V30 1 O -3.4664 -0.0805 2.1755 0
M  V30 2 N -2.6555 0.4856 1.4484 0 CHG=1
M  V30 3 O -1.3849 -0.1393 1.4561 0
M  V30 4 O -2.7877 1.4778 0.7327 0 CHG=-1
M  V30 5 C -0.397 0.534 0.6628 0
M  V30 6 C 0.9665 0.1833 1.285 0
M  V30 7 C -0.5103 0.0901 -0.8065 0
M  V30 8 O 1.9976 1.0363 0.7956 0
M  V30 9 O -0.335 -1.3245 -0.88 0
M  V30 10 N 2.8893 0.4189 -0.1125 0 CHG=1
M  V30 11 N -0.3323 -1.8064 -2.2126 0 CHG=1
M  V30 12 O 2.5729 -0.6898 -0.5406 0
M  V30 13 O 3.8509 1.1298 -0.3897 0 CHG=-1
M  V30 14 O -0.4787 -0.9743 -3.1086 0
M  V30 15 O -0.1995 -3.026 -2.2764 0 CHG=-1
M  V30 16 H -0.5007 1.6258 0.7213 0
M  V30 17 H 0.9056 0.3821 2.3633 0
M  V30 18 H 1.1871 -0.8901 1.2323 0
M  V30 19 H -1.5041 0.3395 -1.1954 0
M  V30 20 H 0.2495 0.6117 -1.4003 0
M  V30 END ATOM
M  V30 BEGIN BOND
M  V30 1 2 1 2
M  V30 2 1 2 3
M  V30 3 1 2 4
M  V30 4 1 3 5
M  V30 5 1 5 6
M  V30 6 1 5 7
M  V30 7 1 6 8
M  V30 8 1 7 9
M  V30 9 1 8 10
M  V30 10 1 9 11
M  V30 11 2 10 12
M  V30 12 1 10 13
M  V30 13 2 11 14
M  V30 14 1 11 15
M  V30 15 1 5 16
M  V30 16 1 6 17
M  V30 17 1 6 18
M  V30 18 1 7 19
M  V30 19 1 7 20
M  V30 END BOND
M  V30 END CTAB
M  END
>  <level_0>
5424

>  <index>
5424

>  <NO.>
5425

>  <Name>
nitroglycerin

>  <SMILES>
O=[N+]([O-])OCC(CO[N+](=O)[O-])O[N+](=O)[O-]

>  <logBB>


>  <Class>
-1

>  <MW>
227.0

>  <nHBAcc>
9

>  <nHBDon>
0

>  <SLogP>
-1.02

>  <TopoPSA>
157.11

>  <MMFF94 Energy>
-46.437

$$$$
O=[N+]([O-])OCC(O[N+](=O)[O-])C(CO[N+](=O)[O-])O[N+](=O)[O-]
Actelion Java MolfileCreator 2.0

  0  0  0  0  0  0              0 V3000
M  V30 BEGIN CTAB
M  V30 COUNTS 26 25 0 0 0
M  V30 BEGIN ATOM
M  V30 1 O 3.4109 2.1105 -0.8113 0
M  V30 2 N 2.7868 1.4892 0.0427 0 CHG=1
M  V30 3 O 1.5087 1.0737 -0.4093 0
M  V30 4 O 3.0978 1.1834 1.1926 0 CHG=-1
M  V30 5 C 0.7647 0.3113 0.5518 0
M  V30 6 C -0.2296 -0.5881 -0.2273 0
M  V30 7 C 0.0416 1.2703 1.5202 0
M  V30 8 O -0.8812 -1.4761 0.693 0
M  V30 9 C 0.5166 -1.4928 -1.2281 0
M  V30 10 O -0.8188 2.1242 0.7667 0
M  V30 11 N -2.2669 -1.2436 0.8671 0 CHG=1
M  V30 12 O -0.4599 -2.2214 -1.9759 0
M  V30 13 N -1.5819 2.9935 1.5865 0 CHG=1
M  V30 14 O -2.8153 -2.1306 1.5134 0
M  V30 15 O -2.716 -0.1896 0.4226 0 CHG=-1
M  V30 16 N 0.1263 -3.1093 -2.9122 0 CHG=1
M  V30 17 O -1.43 2.8879 2.8037 0
M  V30 18 O -2.293 3.756 0.9376 0 CHG=-1
M  V30 19 O 1.3564 -3.1379 -2.9586 0
M  V30 20 O -0.7077 -3.7379 -3.5577 0 CHG=-1
M  V30 21 H 1.4124 -0.359 1.1332 0
M  V30 22 H -0.9154 0.0233 -0.8263 0
M  V30 23 H 0.7749 1.8902 2.0484 0
M  V30 24 H -0.5289 0.6862 2.2519 0
M  V30 25 H 1.1564 -2.194 -0.6771 0
M  V30 26 H 1.1184 -0.8844 -1.9129 0
M  V30 END ATOM
M  V30 BEGIN BOND
M  V30 1 2 1 2
M  V30 2 1 2 3
M  V30 3 1 2 4
M  V30 4 1 3 5
M  V30 5 1 5 6
M  V30 6 1 5 7
M  V30 7 1 6 8
M  V30 8 1 6 9
M  V30 9 1 7 10
M  V30 10 1 8 11
M  V30 11 1 9 12
M  V30 12 1 10 13
M  V30 13 2 11 14
M  V30 14 1 11 15
M  V30 15 1 12 16
M  V30 16 2 13 17
M  V30 17 1 13 18
M  V30 18 2 16 19
M  V30 19 1 16 20
M  V30 20 1 5 21
M  V30 21 1 6 22
M  V30 22 1 7 23
M  V30 23 1 7 24
M  V30 24 1 9 25
M  V30 25 1 9 26
M  V30 END BOND
M  V30 END CTAB
M  END
>  <level_0>
5425

>  <index>
5425

>  <NO.>
5426

>  <Name>
erythrityl

>  <SMILES>
O=[N+]([O-])OCC(O[N+](=O)[O-])C(CO[N+](=O)[O-])O[N+](=O)[O-]

>  <logBB>


>  <Class>
-1

>  <MW>
302.0

>  <nHBAcc>
12

>  <nHBDon>
0

>  <SLogP>
-1.44

>  <TopoPSA>
209.48

>  <MMFF94 Energy>
-62.841

$$$$
O=c1[nH]c(=O)n(C2CC(O)C(CO)O2)cc1C=CBr
Actelion Java MolfileCreator 2.0

  0  0  0  0  0  0              0 V3000
M  V30 BEGIN CTAB
M  V30 COUNTS 32 33 0 0 0
M  V30 BEGIN ATOM
M  V30 1 Br -1.9394 -4.4488 -4.1247 0
M  V30 2 C -2.4093 -3.2762 -2.7601 0
M  V30 3 C -1.5155 -2.582 -2.0442 0
M  V30 4 C -1.7776 -1.6426 -0.96 0
M  V30 5 C -3.1484 -1.3226 -0.4499 0
M  V30 6 C -0.7563 -1.0123 -0.3543 0
M  V30 7 O -4.1741 -1.8137 -0.9109 0
M  V30 8 N -3.2172 -0.4311 0.5828 0
M  V30 9 N -0.9127 -0.1133 0.6846 0
M  V30 10 C -2.1666 0.2013 1.1853 0
M  V30 11 C 0.2264 0.5582 1.3054 0
M  V30 12 O -2.3685 0.9939 2.1016 0
M  V30 13 O 1.4684 -0.0891 0.9654 0
M  V30 14 C 0.3912 2.0014 0.8536 0
M  V30 15 C 2.5136 0.9136 1.0188 0
M  V30 16 C 1.8302 2.2696 1.2242 0
M  V30 17 C 3.3208 0.8324 -0.2779 0
M  V30 18 O 1.8649 2.634 2.6075 0
M  V30 19 O 2.5135 1.1334 -1.4125 0
M  V30 20 H -3.4819 -3.2253 -2.6195 0
M  V30 21 H -0.4636 -2.7273 -2.2901 0
M  V30 22 H 0.2656 -1.2047 -0.666 0
M  V30 23 H -4.136 -0.2117 0.9346 0
M  V30 24 H 0.114 0.5039 2.3965 0
M  V30 25 H -0.3231 2.6714 1.3414 0
M  V30 26 H 0.2586 2.0817 -0.2314 0
M  V30 27 H 3.1643 0.6625 1.8641 0
M  V30 28 H 2.2741 3.0902 0.6528 0
M  V30 29 H 4.1534 1.5419 -0.2579 0
M  V30 30 H 3.7256 -0.1751 -0.4188 0
M  V30 31 H 2.7627 2.9499 2.8116 0
M  V30 32 H 1.8331 0.4379 -1.4538 0
M  V30 END ATOM
M  V30 BEGIN BOND
M  V30 1 1 1 2
M  V30 2 2 2 3
M  V30 3 1 3 4
M  V30 4 1 4 5
M  V30 5 2 4 6
M  V30 6 2 5 7
M  V30 7 1 5 8
M  V30 8 1 6 9
M  V30 9 1 8 10
M  V30 10 1 9 11
M  V30 11 2 10 12
M  V30 12 1 11 13
M  V30 13 1 11 14
M  V30 14 1 13 15
M  V30 15 1 14 16
M  V30 16 1 15 17
M  V30 17 1 16 18
M  V30 18 1 17 19
M  V30 19 1 9 10
M  V30 20 1 15 16
M  V30 21 1 2 20
M  V30 22 1 3 21
M  V30 23 1 6 22
M  V30 24 1 8 23
M  V30 25 1 11 24
M  V30 26 1 14 25
M  V30 27 1 14 26
M  V30 28 1 15 27
M  V30 29 1 16 28
M  V30 30 1 17 29
M  V30 31 1 17 30
M  V30 32 1 18 31
M  V30 33 1 19 32
M  V30 END BOND
M  V30 END CTAB
M  END
>  <level_0>
5426

>  <index>
5426

>  <NO.>
5427

>  <Name>
brivudine

>  <SMILES>
O=c1[nH]c(=O)n(C2CC(O)C(CO)O2)cc1C=CBr

>  <logBB>


>  <Class>
-1

>  <MW>
332.0

>  <nHBAcc>
5

>  <nHBDon>
3

>  <SLogP>
-0.46

>  <TopoPSA>
104.55

>  <MMFF94 Energy>
-37.104

$$$$
O=c1[nH]c(=O)n(C2CCCO2)cc1F
Actelion Java MolfileCreator 2.0

  0  0  0  0  0  0              0 V3000
M  V30 BEGIN CTAB
M  V30 COUNTS 23 24 0 0 0
M  V30 BEGIN ATOM
M  V30 1 F 2.6459 -2.004 2.2446 0
M  V30 2 C 1.6802 -1.0832 2.0726 0
M  V30 3 C 1.0428 -0.5241 3.2789 0
M  V30 4 C 1.2877 -0.6744 0.867 0
M  V30 5 O 1.3577 -0.8612 4.4142 0
M  V30 6 N 0.06 0.3996 3.0349 0
M  V30 7 N 0.2921 0.2743 0.7087 0
M  V30 8 C -0.3673 0.8271 1.802 0
M  V30 9 C -0.1448 0.7012 -0.613 0 CFG=1
M  V30 10 O -1.2856 1.6386 1.7134 0
M  V30 11 O 0.8855 0.4927 -1.597 0
M  V30 12 C -1.3704 -0.0563 -1.1069 0
M  V30 13 C 0.2834 -0.0765 -2.7681 0
M  V30 14 C -1.2145 0.0515 -2.6018 0
M  V30 15 H 1.7513 -1.08 -0.0258 0
M  V30 16 H -0.4026 0.7973 3.8375 0
M  V30 17 H -0.3525 1.7786 -0.5946 0
M  V30 18 H -1.33 -1.1104 -0.8055 0
M  V30 19 H -2.3096 0.363 -0.735 0
M  V30 20 H 0.5873 -1.1273 -2.8209 0
M  V30 21 H 0.6527 0.438 -3.6593 0
M  V30 22 H -1.5456 1.041 -2.9387 0
M  V30 23 H -1.7727 -0.7051 -3.1587 0
M  V30 END ATOM
M  V30 BEGIN BOND
M  V30 1 1 1 2
M  V30 2 1 2 3
M  V30 3 2 2 4
M  V30 4 2 3 5
M  V30 5 1 3 6
M  V30 6 1 4 7
M  V30 7 1 6 8
M  V30 8 1 7 9
M  V30 9 2 8 10
M  V30 10 1 9 11
M  V30 11 1 9 12
M  V30 12 1 11 13
M  V30 13 1 12 14
M  V30 14 1 7 8
M  V30 15 1 13 14
M  V30 16 1 4 15
M  V30 17 1 6 16
M  V30 18 1 9 17
M  V30 19 1 12 18
M  V30 20 1 12 19
M  V30 21 1 13 20
M  V30 22 1 13 21
M  V30 23 1 14 22
M  V30 24 1 14 23
M  V30 END BOND
M  V30 BEGIN COLLECTION
M  V30 MDLV30/STERAC1 ATOMS=(1 9)
M  V30 END COLLECTION
M  V30 END CTAB
M  END
>  <level_0>
5427

>  <index>
5427

>  <NO.>
5428

>  <Name>
tegafur

>  <SMILES>
O=c1[nH]c(=O)n(C2CCCO2)cc1F

>  <logBB>


>  <Class>
-1

>  <MW>
200.06

>  <nHBAcc>
3

>  <nHBDon>
1

>  <SLogP>
-0.02

>  <TopoPSA>
64.09

>  <MMFF94 Energy>
-70.906

$$$$
O=c1[nH]c(=O)n(C2OC(CO)C(O)C2O)cc1C=CBr
Actelion Java MolfileCreator 2.0

  0  0  0  0  0  0              0 V3000
M  V30 BEGIN CTAB
M  V30 COUNTS 33 34 0 0 0
M  V30 BEGIN ATOM
M  V30 1 Br 6.4029 -1.699 -2.9139 0
M  V30 2 C 4.5793 -1.3395 -2.9664 0
M  V30 3 C 3.8543 -1.0435 -1.88 0
M  V30 4 C 2.428 -0.7474 -1.8139 0
M  V30 5 C 1.5258 -0.7292 -3.0075 0
M  V30 6 C 1.8517 -0.4687 -0.6319 0
M  V30 7 O 1.9093 -0.9572 -4.1506 0
M  V30 8 N 0.2126 -0.439 -2.7686 0
M  V30 9 N 0.5072 -0.1772 -0.4759 0
M  V30 10 C -0.3562 -0.1596 -1.5569 0
M  V30 11 C -0.0051 0.1154 0.8647 0
M  V30 12 O -1.5605 0.0776 -1.4953 0
M  V30 13 O -0.5269 1.4555 0.8965 0
M  V30 14 C -1.1048 -0.8252 1.3788 0
M  V30 15 C -1.6992 1.4554 1.7411 0
M  V30 16 O -0.5826 -2.0044 1.9952 0
M  V30 17 C -1.7948 0.0729 2.3927 0
M  V30 18 C -2.9349 1.7957 0.907 0
M  V30 19 O -1.0213 0.024 3.6103 0
M  V30 20 O -4.0666 1.9424 1.7594 0
M  V30 21 H 4.1823 -1.3989 -3.972 0
M  V30 22 H 4.3796 -1.0176 -0.9252 0
M  V30 23 H 2.4447 -0.4624 0.2798 0
M  V30 24 H -0.4015 -0.4276 -3.5672 0
M  V30 25 H 0.8361 0.0971 1.5702 0
M  V30 26 H -1.8055 -1.127 0.5966 0
M  V30 27 H -1.5552 2.2272 2.5061 0
M  V30 28 H -0.3972 -1.7447 2.9229 0
M  V30 29 H -2.8081 -0.2561 2.6395 0
M  V30 30 H -3.1563 1.0164 0.1738 0
M  V30 31 H -2.7777 2.7322 0.3613 0
M  V30 32 H -1.4716 0.6113 4.2471 0
M  V30 33 H -4.8125 2.1986 1.1869 0
M  V30 END ATOM
M  V30 BEGIN BOND
M  V30 1 1 1 2
M  V30 2 2 2 3
M  V30 3 1 3 4
M  V30 4 1 4 5
M  V30 5 2 4 6
M  V30 6 2 5 7
M  V30 7 1 5 8
M  V30 8 1 6 9
M  V30 9 1 8 10
M  V30 10 1 9 11
M  V30 11 2 10 12
M  V30 12 1 11 13
M  V30 13 1 11 14
M  V30 14 1 13 15
M  V30 15 1 14 16
M  V30 16 1 14 17
M  V30 17 1 15 18
M  V30 18 1 17 19
M  V30 19 1 18 20
M  V30 20 1 9 10
M  V30 21 1 15 17
M  V30 22 1 2 21
M  V30 23 1 3 22
M  V30 24 1 6 23
M  V30 25 1 8 24
M  V30 26 1 11 25
M  V30 27 1 14 26
M  V30 28 1 15 27
M  V30 29 1 16 28
M  V30 30 1 17 29
M  V30 31 1 18 30
M  V30 32 1 18 31
M  V30 33 1 19 32
M  V30 34 1 20 33
M  V30 END BOND
M  V30 END CTAB
M  END
>  <level_0>
5428

>  <index>
5428

>  <NO.>
5429

>  <Name>
uridine, 5-(2-bromoethenyl)-

>  <SMILES>
O=c1[nH]c(=O)n(C2OC(CO)C(O)C2O)cc1C=CBr

>  <logBB>


>  <Class>
-1

>  <MW>
348.0

>  <nHBAcc>
6

>  <nHBDon>
4

>  <SLogP>
-1.49

>  <TopoPSA>
124.78

>  <MMFF94 Energy>
9.3565

$$$$
OC(CBr)C(O)C(O)C(O)CBr
Actelion Java MolfileCreator 2.0

  0  0  0  0  0  0              0 V3000
M  V30 BEGIN CTAB
M  V30 COUNTS 24 23 0 0 0
M  V30 BEGIN ATOM
M  V30 1 Br 3.8429 1.5521 0.6533 0
M  V30 2 C 2.4414 2.0087 -0.6154 0
M  V30 3 C 1.5148 0.829 -0.9096 0
M  V30 4 O 0.8764 1.1346 -2.1577 0
M  V30 5 C 0.4544 0.5769 0.2048 0
M  V30 6 O 1.0441 0.3077 1.4813 0
M  V30 7 C -0.4903 -0.609 -0.159 0
M  V30 8 O -1.1347 -0.338 -1.4082 0
M  V30 9 C -1.4936 -0.9291 0.9856 0
M  V30 10 O -0.799 -1.4482 2.1278 0
M  V30 11 C -2.5485 -1.9608 0.59 0
M  V30 12 Br -4.0629 -1.1107 -0.3014 0
M  V30 13 H 1.8966 2.8651 -0.2059 0
M  V30 14 H 2.9588 2.3429 -1.5206 0
M  V30 15 H 2.1099 -0.0795 -1.0596 0
M  V30 16 H 0.1647 0.4705 -2.2924 0
M  V30 17 H -0.1619 1.48 0.3015 0
M  V30 18 H 1.7701 0.9435 1.6333 0
M  V30 19 H 0.138 -1.497 -0.3064 0
M  V30 20 H -2.0254 0.0239 -1.2304 0
M  V30 21 H -1.9832 -0.0022 1.3084 0
M  V30 22 H -0.0141 -0.8722 2.2651 0
M  V30 23 H -2.9688 -2.4643 1.4664 0
M  V30 24 H -2.155 -2.7235 -0.0881 0
M  V30 END ATOM
M  V30 BEGIN BOND
M  V30 1 1 1 2
M  V30 2 1 2 3
M  V30 3 1 3 4
M  V30 4 1 3 5
M  V30 5 1 5 6
M  V30 6 1 5 7
M  V30 7 1 7 8
M  V30 8 1 7 9
M  V30 9 1 9 10
M  V30 10 1 9 11
M  V30 11 1 11 12
M  V30 12 1 2 13
M  V30 13 1 2 14
M  V30 14 1 3 15
M  V30 15 1 4 16
M  V30 16 1 5 17
M  V30 17 1 6 18
M  V30 18 1 7 19
M  V30 19 1 8 20
M  V30 20 1 9 21
M  V30 21 1 10 22
M  V30 22 1 11 23
M  V30 23 1 11 24
M  V30 END BOND
M  V30 END CTAB
M  END
>  <level_0>
5430

>  <index>
5430

>  <NO.>
5431

>  <Name>
1,6-dibromo-1,6-dideoxyhexitol

>  <SMILES>
OC(CBr)C(O)C(O)C(O)CBr

>  <logBB>


>  <Class>
-1

>  <MW>
305.91

>  <nHBAcc>
4

>  <nHBDon>
4

>  <SLogP>
-0.78

>  <TopoPSA>
80.92

>  <MMFF94 Energy>
90.024

$$$$
OCC(CO)NC1CC(O)(CO)C(O)C(O)C1O
Actelion Java MolfileCreator 2.0

  0  0  0  0  0  0              0 V3000
M  V30 BEGIN CTAB
M  V30 COUNTS 39 39 0 0 0
M  V30 BEGIN ATOM
M  V30 1 O 2.3576 -0.8639 0.5497 0
M  V30 2 C 1.9153 0.4609 0.1852 0
M  V30 3 C 2.2562 0.6989 -1.2987 0
M  V30 4 C 0.3973 0.553 0.4393 0
M  V30 5 C 2.684 1.4432 1.0933 0
M  V30 6 O 3.6527 0.4218 -1.5358 0
M  V30 7 C 1.4501 -0.2377 -2.2102 0
M  V30 8 C -0.4227 -0.3659 -0.4914 0
M  V30 9 O 2.4393 1.1639 2.4708 0
M  V30 10 O 1.7371 0.1032 -3.5804 0
M  V30 11 C -0.0529 -0.0886 -1.9707 0
M  V30 12 N -1.8827 -0.1664 -0.367 0
M  V30 13 O -0.4397 1.2538 -2.3354 0
M  V30 14 C -2.4699 -0.3713 0.975 0
M  V30 15 C -3.975 -0.0277 0.878 0
M  V30 16 C -2.3118 -1.8122 1.5169 0
M  V30 17 O -4.5932 -0.0491 2.162 0
M  V30 18 O -0.9813 -2.0614 1.9698 0
M  V30 19 H 3.2402 -0.979 0.1425 0
M  V30 20 H 2.0805 1.7435 -1.5855 0
M  V30 21 H 0.1955 0.2764 1.4799 0
M  V30 22 H 0.071 1.5941 0.3143 0
M  V30 23 H 3.7648 1.3494 0.9469 0
M  V30 24 H 2.3968 2.4809 0.8964 0
M  V30 25 H 4.1406 1.2557 -1.4019 0
M  V30 26 H 1.7587 -1.2807 -2.0718 0
M  V30 27 H -0.1787 -1.4146 -0.2894 0
M  V30 28 H 2.3503 0.1913 2.5368 0
M  V30 29 H 2.7085 0.0274 -3.6595 0
M  V30 30 H -0.6041 -0.763 -2.6379 0
M  V30 31 H -2.0792 0.7845 -0.693 0
M  V30 32 H -0.1217 1.3515 -3.2561 0
M  V30 33 H -2.0157 0.3229 1.6916 0
M  V30 34 H -4.1108 0.9788 0.4662 0
M  V30 35 H -4.4998 -0.74 0.2312 0
M  V30 36 H -2.9742 -1.9828 2.3717 0
M  V30 37 H -2.5603 -2.5478 0.7437 0
M  V30 38 H -5.515 0.235 2.0348 0
M  V30 39 H -0.961 -2.9802 2.285 0
M  V30 END ATOM
M  V30 BEGIN BOND
M  V30 1 1 1 2
M  V30 2 1 2 3
M  V30 3 1 2 4
M  V30 4 1 2 5
M  V30 5 1 3 6
M  V30 6 1 3 7
M  V30 7 1 4 8
M  V30 8 1 5 9
M  V30 9 1 7 10
M  V30 10 1 7 11
M  V30 11 1 8 12
M  V30 12 1 11 13
M  V30 13 1 12 14
M  V30 14 1 14 15
M  V30 15 1 14 16
M  V30 16 1 15 17
M  V30 17 1 16 18
M  V30 18 1 8 11
M  V30 19 1 1 19
M  V30 20 1 3 20
M  V30 21 1 4 21
M  V30 22 1 4 22
M  V30 23 1 5 23
M  V30 24 1 5 24
M  V30 25 1 6 25
M  V30 26 1 7 26
M  V30 27 1 8 27
M  V30 28 1 9 28
M  V30 29 1 10 29
M  V30 30 1 11 30
M  V30 31 1 12 31
M  V30 32 1 13 32
M  V30 33 1 14 33
M  V30 34 1 15 34
M  V30 35 1 15 35
M  V30 36 1 16 36
M  V30 37 1 16 37
M  V30 38 1 17 38
M  V30 39 1 18 39
M  V30 END BOND
M  V30 END CTAB
M  END
>  <level_0>
5431

>  <index>
5431

>  <NO.>
5432

>  <Name>
voglibose

>  <SMILES>
OCC(CO)NC1CC(O)(CO)C(O)C(O)C1O

>  <logBB>


>  <Class>
-1

>  <MW>
267.13

>  <nHBAcc>
8

>  <nHBDon>
8

>  <SLogP>
-4.49

>  <TopoPSA>
153.64

>  <MMFF94 Energy>
147.19

$$$$
OCC(O)C(O)C(OC1OC(CO)C(O)C(O)C1O)C(O)CO
Actelion Java MolfileCreator 2.0

  0  0  0  0  0  0              0 V3000
M  V30 BEGIN CTAB
M  V30 COUNTS 47 47 0 0 0
M  V30 BEGIN ATOM
M  V30 1 O 1.183 0.1576 1.8145 0
M  V30 2 C 0.0374 -0.6541 1.5147 0
M  V30 3 C 2.3969 -0.3346 1.2069 0
M  V30 4 O -0.238 -0.6844 0.1203 0
M  V30 5 C 0.2588 -2.0849 2.0483 0
M  V30 6 C 2.7367 -1.7414 1.7047 0
M  V30 7 C 3.5113 0.6641 1.534 0
M  V30 8 C -0.7773 0.5507 -0.4144 0
M  V30 9 O 0.3735 -2.1012 3.4881 0
M  V30 10 C 1.5458 -2.6775 1.4695 0
M  V30 11 O 3.8857 -2.2621 1.0331 0
M  V30 12 O 3.1481 1.9571 1.0407 0
M  V30 13 C -2.2791 0.6881 -0.0199 0
M  V30 14 C -0.5711 0.5187 -1.944 0
M  V30 15 O 1.8441 -3.9402 2.0916 0
M  V30 16 O -3.022 -0.4918 -0.354 0
M  V30 17 C -3.0043 1.9535 -0.5191 0
M  V30 18 O -1.4393 -0.4664 -2.5433 0
M  V30 19 C 0.8688 0.1937 -2.3542 0
M  V30 20 O -2.1097 3.0732 -0.5474 0
M  V30 21 C -3.7176 1.8346 -1.8713 0
M  V30 22 O 0.9269 0.1866 -3.7853 0
M  V30 23 O -4.3755 3.0826 -2.1374 0
M  V30 24 H -0.7982 -0.2225 2.072 0
M  V30 25 H 2.2699 -0.332 0.1187 0
M  V30 26 H -0.5866 -2.7323 1.7914 0
M  V30 27 H 2.9771 -1.7184 2.7751 0
M  V30 28 H 3.6555 0.757 2.6156 0
M  V30 29 H 4.4606 0.3788 1.0719 0
M  V30 30 H -0.1981 1.3894 -0.0085 0
M  V30 31 H 0.6727 -1.2155 3.7708 0
M  V30 32 H 1.4339 -2.875 0.397 0
M  V30 33 H 3.8894 -3.222 1.2285 0
M  V30 34 H 2.2548 2.1324 1.3928 0
M  V30 35 H -2.3187 0.7427 1.0728 0
M  V30 36 H -0.8448 1.4823 -2.3849 0
M  V30 37 H 1.4565 -3.8903 2.9906 0
M  V30 38 H -2.6006 -0.8539 -1.1674 0
M  V30 39 H -3.7759 2.2082 0.2196 0
M  V30 40 H -1.0802 -0.5779 -3.4503 0
M  V30 41 H 1.1681 -0.804 -2.0202 0
M  V30 42 H 1.5687 0.9434 -1.9735 0
M  V30 43 H -2.5779 3.7594 -1.0687 0
M  V30 44 H -4.4633 1.0343 -1.8859 0
M  V30 45 H -3.0171 1.6834 -2.6933 0
M  V30 46 H 1.8596 0.0355 -4.0237 0
M  V30 47 H -5.2276 3.0587 -1.6652 0
M  V30 END ATOM
M  V30 BEGIN BOND
M  V30 1 1 1 2
M  V30 2 1 1 3
M  V30 3 1 2 4
M  V30 4 1 2 5
M  V30 5 1 3 6
M  V30 6 1 3 7
M  V30 7 1 4 8
M  V30 8 1 5 9
M  V30 9 1 5 10
M  V30 10 1 6 11
M  V30 11 1 7 12
M  V30 12 1 8 13
M  V30 13 1 8 14
M  V30 14 1 10 15
M  V30 15 1 13 16
M  V30 16 1 13 17
M  V30 17 1 14 18
M  V30 18 1 14 19
M  V30 19 1 17 20
M  V30 20 1 17 21
M  V30 21 1 19 22
M  V30 22 1 21 23
M  V30 23 1 6 10
M  V30 24 1 2 24
M  V30 25 1 3 25
M  V30 26 1 5 26
M  V30 27 1 6 27
M  V30 28 1 7 28
M  V30 29 1 7 29
M  V30 30 1 8 30
M  V30 31 1 9 31
M  V30 32 1 10 32
M  V30 33 1 11 33
M  V30 34 1 12 34
M  V30 35 1 13 35
M  V30 36 1 14 36
M  V30 37 1 15 37
M  V30 38 1 16 38
M  V30 39 1 17 39
M  V30 40 1 18 40
M  V30 41 1 19 41
M  V30 42 1 19 42
M  V30 43 1 20 43
M  V30 44 1 21 44
M  V30 45 1 21 45
M  V30 46 1 22 46
M  V30 47 1 23 47
M  V30 END BOND
M  V30 END CTAB
M  END
>  <level_0>
5432

>  <index>
5432

>  <NO.>
5433

>  <Name>
lactitol

>  <SMILES>
OCC(O)C(O)C(OC1OC(CO)C(O)C(O)C1O)C(O)CO

>  <logBB>


>  <Class>
-1

>  <MW>
344.13

>  <nHBAcc>
11

>  <nHBDon>
9

>  <SLogP>
-5.76

>  <TopoPSA>
200.53

>  <MMFF94 Energy>
183.41

$$$$
Oc1c(Cl)cc(Cl)cc1Sc1cc(Cl)cc(Cl)c1O
Actelion Java MolfileCreator 2.0

  0  0  0  0  0  0              0 V3000
M  V30 BEGIN CTAB
M  V30 COUNTS 25 26 0 0 0
M  V30 BEGIN ATOM
M  V30 1 Cl 2.445 4.4565 1.2219 0
M  V30 2 C 1.3238 3.1436 1.194 0
M  V30 3 C 1.7813 1.8239 1.0814 0
M  V30 4 C -0.0376 3.4167 1.2875 0
M  V30 5 O 3.1288 1.569 1.0004 0
M  V30 6 C 0.8696 0.7566 1.0465 0
M  V30 7 C -0.9416 2.3596 1.2764 0
M  V30 8 S 1.4461 -0.934 0.9175 0
M  V30 9 C -0.499 1.0405 1.1662 0
M  V30 10 Cl -2.6277 2.6816 1.4046 0
M  V30 11 C 0.2842 -1.7274 -0.1883 0
M  V30 12 C -0.1347 -1.1942 -1.4176 0
M  V30 13 C -0.1896 -2.9917 0.1915 0
M  V30 14 O 0.35 0.0188 -1.8389 0
M  V30 15 C -1.0338 -1.9036 -2.226 0
M  V30 16 C -1.0847 -3.6875 -0.6227 0
M  V30 17 Cl -1.5565 -1.2442 -3.7336 0
M  V30 18 C -1.5147 -3.1485 -1.8307 0
M  V30 19 Cl -1.6634 -5.2304 -0.1269 0
M  V30 20 H -0.3903 4.4406 1.3745 0
M  V30 21 H 3.5969 2.4237 1.017 0
M  V30 22 H -1.2291 0.2355 1.1778 0
M  V30 23 H 0.1362 -3.4375 1.1297 0
M  V30 24 H -0.0083 0.1931 -2.7292 0
M  V30 25 H -2.2109 -3.6964 -2.4597 0
M  V30 END ATOM
M  V30 BEGIN BOND
M  V30 1 1 1 2
M  V30 2 2 2 3
M  V30 3 1 2 4
M  V30 4 1 3 5
M  V30 5 1 3 6
M  V30 6 2 4 7
M  V30 7 1 6 8
M  V30 8 2 6 9
M  V30 9 1 7 10
M  V30 10 1 8 11
M  V30 11 2 11 12
M  V30 12 1 11 13
M  V30 13 1 12 14
M  V30 14 1 12 15
M  V30 15 2 13 16
M  V30 16 1 15 17
M  V30 17 2 15 18
M  V30 18 1 16 19
M  V30 19 1 7 9
M  V30 20 1 16 18
M  V30 21 1 4 20
M  V30 22 1 5 21
M  V30 23 1 9 22
M  V30 24 1 13 23
M  V30 25 1 14 24
M  V30 26 1 18 25
M  V30 END BOND
M  V30 END CTAB
M  END
>  <level_0>
5437

>  <index>
5437

>  <NO.>
5438

>  <Name>
bithionol

>  <SMILES>
Oc1c(Cl)cc(Cl)cc1Sc1cc(Cl)cc(Cl)c1O

>  <logBB>


>  <Class>
-1

>  <MW>
353.88

>  <nHBAcc>
3

>  <nHBDon>
2

>  <SLogP>
5.86

>  <TopoPSA>
40.46

>  <MMFF94 Energy>
35.379

$$$$
Oc1ccc(C(O)CNCCCCCCNCC(O)c2ccc(O)c(O)c2)cc1O
Actelion Java MolfileCreator 2.0

  0  0  0  0  0  0              0 V3000
M  V30 BEGIN CTAB
M  V30 COUNTS 62 63 0 0 0
M  V30 BEGIN ATOM
M  V30 1 O -6.4351 -4.1555 -0.783 0
M  V30 2 C -6.4029 -2.9227 -1.3755 0
M  V30 3 C -7.4403 -2.5968 -2.2448 0
M  V30 4 C -5.376 -2.0159 -1.1301 0
M  V30 5 O -8.4397 -3.4969 -2.4814 0
M  V30 6 C -7.4748 -1.3641 -2.8759 0
M  V30 7 C -5.3913 -0.7587 -1.7601 0
M  V30 8 C -6.4506 -0.4462 -2.6332 0
M  V30 9 C -4.2605 0.2186 -1.5259 0
M  V30 10 O -4.7718 1.5525 -1.4361 0
M  V30 11 C -3.2034 0.1596 -2.6553 0
M  V30 12 N -2.1689 1.1873 -2.4214 0
M  V30 13 C -1.2468 1.3251 -3.551 0
M  V30 14 C -0.3627 0.1063 -3.8469 0
M  V30 15 C 0.4718 -0.4146 -2.6719 0
M  V30 16 C 1.4446 0.6214 -2.1053 0
M  V30 17 C 2.3092 0.0161 -0.9964 0
M  V30 18 C 3.2669 1.0545 -0.4081 0
M  V30 19 N 4.046 0.4426 0.6662 0
M  V30 20 C 4.963 1.4114 1.2831 0
M  V30 21 C 5.7592 0.8302 2.4806 0
M  V30 22 O 6.8785 1.6813 2.7595 0
M  V30 23 C 4.9175 0.6806 3.7325 0
M  V30 24 C 4.2112 -0.5116 3.9603 0
M  V30 25 C 4.8021 1.724 4.6711 0
M  V30 26 C 3.4297 -0.6454 5.1 0
M  V30 27 C 4.0126 1.5817 5.8172 0
M  V30 28 O 2.7512 -1.8125 5.311 0
M  V30 29 C 3.33 0.3906 6.0239 0
M  V30 30 O 2.543 0.1893 7.1246 0
M  V30 31 H -5.6855 -4.2145 -0.1664 0
M  V30 32 H -4.565 -2.2716 -0.4549 0
M  V30 33 H -8.2068 -4.2687 -1.9284 0
M  V30 34 H -8.2911 -1.1155 -3.5467 0
M  V30 35 H -6.4824 0.5259 -3.1226 0
M  V30 36 H -3.7844 0.0055 -0.5608 0
M  V30 37 H -4.006 2.1189 -1.6611 0
M  V30 38 H -3.6919 0.363 -3.6165 0
M  V30 39 H -2.7624 -0.8423 -2.698 0
M  V30 40 H -1.644 0.9543 -1.5773 0
M  V30 41 H -1.8127 1.5852 -4.4542 0
M  V30 42 H -0.6061 2.192 -3.3527 0
M  V30 43 H 0.3141 0.368 -4.6702 0
M  V30 44 H -0.9855 -0.715 -4.2216 0
M  V30 45 H 1.0406 -1.2857 -3.0211 0
M  V30 46 H -0.1879 -0.779 -1.8758 0
M  V30 47 H 0.8906 1.4754 -1.6999 0
M  V30 48 H 2.088 1.001 -2.908 0
M  V30 49 H 1.6601 -0.3787 -0.2042 0
M  V30 50 H 2.8794 -0.8306 -1.3989 0
M  V30 51 H 2.6883 1.8998 -0.017 0
M  V30 52 H 3.9317 1.4307 -1.1947 0
M  V30 53 H 4.5684 -0.3553 0.3072 0
M  V30 54 H 4.4098 2.2991 1.6169 0
M  V30 55 H 5.677 1.7589 0.5252 0
M  V30 56 H 6.1823 -0.1471 2.2154 0
M  V30 57 H 7.5079 1.5661 2.0285 0
M  V30 58 H 4.2603 -1.3323 3.2505 0
M  V30 59 H 5.3397 2.6571 4.5097 0
M  V30 60 H 3.9495 2.4031 6.5229 0
M  V30 61 H 2.2844 -1.6679 6.1581 0
M  V30 62 H 2.5822 0.9944 7.6691 0
M  V30 END ATOM
M  V30 BEGIN BOND
M  V30 1 1 1 2
M  V30 2 2 2 3
M  V30 3 1 2 4
M  V30 4 1 3 5
M  V30 5 1 3 6
M  V30 6 2 4 7
M  V30 7 2 6 8
M  V30 8 1 7 9
M  V30 9 1 9 10
M  V30 10 1 9 11
M  V30 11 1 11 12
M  V30 12 1 12 13
M  V30 13 1 13 14
M  V30 14 1 14 15
M  V30 15 1 15 16
M  V30 16 1 16 17
M  V30 17 1 17 18
M  V30 18 1 18 19
M  V30 19 1 19 20
M  V30 20 1 20 21
M  V30 21 1 21 22
M  V30 22 1 21 23
M  V30 23 2 23 24
M  V30 24 1 23 25
M  V30 25 1 24 26
M  V30 26 2 25 27
M  V30 27 1 26 28
M  V30 28 2 26 29
M  V30 29 1 29 30
M  V30 30 1 7 8
M  V30 31 1 27 29
M  V30 32 1 1 31
M  V30 33 1 4 32
M  V30 34 1 5 33
M  V30 35 1 6 34
M  V30 36 1 8 35
M  V30 37 1 9 36
M  V30 38 1 10 37
M  V30 39 1 11 38
M  V30 40 1 11 39
M  V30 41 1 12 40
M  V30 42 1 13 41
M  V30 43 1 13 42
M  V30 44 1 14 43
M  V30 45 1 14 44
M  V30 46 1 15 45
M  V30 47 1 15 46
M  V30 48 1 16 47
M  V30 49 1 16 48
M  V30 50 1 17 49
M  V30 51 1 17 50
M  V30 52 1 18 51
M  V30 53 1 18 52
M  V30 54 1 19 53
M  V30 55 1 20 54
M  V30 56 1 20 55
M  V30 57 1 21 56
M  V30 58 1 22 57
M  V30 59 1 24 58
M  V30 60 1 25 59
M  V30 61 1 27 60
M  V30 62 1 28 61
M  V30 63 1 30 62
M  V30 END BOND
M  V30 END CTAB
M  END
>  <level_0>
5439

>  <index>
5439

>  <NO.>
5440

>  <Name>
hexoprenaline

>  <SMILES>
Oc1ccc(C(O)CNCCCCCCNCC(O)c2ccc(O)c(O)c2)cc1O

>  <logBB>


>  <Class>
-1

>  <MW>
420.23

>  <nHBAcc>
8

>  <nHBDon>
8

>  <SLogP>
2.02

>  <TopoPSA>
145.44

>  <MMFF94 Energy>
77.696

$$$$
CC(=O)N[C@@H]1[C@@H](N=C(N)N)C=C(C(=O)O)O[C@H]1[C@H](O)[C@H](O)CO
Actelion Java MolfileCreator 2.0

  0  0  0  0  0  0              0 V3000
M  V30 BEGIN CTAB
M  V30 COUNTS 43 43 0 0 0
M  V30 BEGIN ATOM
M  V30 1 O -1.1733 0.0 4.6215 0
M  V30 2 C -1.2188 -0.8182 3.7177 0
M  V30 3 O -1.5017 -2.1083 3.9689 0
M  V30 4 C -0.9863 -0.5086 2.2786 0
M  V30 5 O -0.8808 0.8336 1.9568 0
M  V30 6 C -0.8626 -1.4895 1.3708 0
M  V30 7 C -0.2288 1.1435 0.6957 0 CFG=2
M  V30 8 C -0.6637 -1.2427 -0.0937 0 CFG=1
M  V30 9 C -0.7932 0.2627 -0.4385 0 CFG=1
M  V30 10 C 1.3064 1.1329 0.9231 0 CFG=2
M  V30 11 N 0.6585 -1.7649 -0.4375 0
M  V30 12 N -2.2124 0.6095 -0.6793 0
M  V30 13 O 1.5929 1.8154 2.1713 0
M  V30 14 C 2.1152 1.846 -0.188 0 CFG=2
M  V30 15 C 0.8955 -2.0514 -1.6658 0
M  V30 16 C -2.8569 0.2458 -1.837 0
M  V30 17 O 1.886 1.262 -1.4634 0
M  V30 18 C 3.6233 1.8267 0.128 0
M  V30 19 N 2.0935 -2.5667 -1.9898 0
M  V30 20 N 0.1072 -1.9218 -2.7486 0
M  V30 21 O -2.3195 -0.4041 -2.7297 0
M  V30 22 C -4.2983 0.6695 -1.8971 0
M  V30 23 O 3.951 2.6611 1.2325 0
M  V30 24 H -1.6179 -2.1339 4.9412 0
M  V30 25 H -0.9209 -2.5341 1.6651 0
M  V30 26 H -0.5151 2.1856 0.4994 0
M  V30 27 H -1.4387 -1.8269 -0.607 0
M  V30 28 H -0.2897 0.4836 -1.3812 0
M  V30 29 H 1.6661 0.1079 1.0513 0
M  V30 30 H -2.734 1.0385 0.0767 0
M  V30 31 H 0.9087 1.5197 2.8074 0
M  V30 32 H 1.7891 2.893 -0.2321 0
M  V30 33 H 2.4315 1.7394 -2.1132 0
M  V30 34 H 3.9648 0.8073 0.3394 0
M  V30 35 H 4.1977 2.1779 -0.7357 0
M  V30 36 H 2.2784 -2.9902 -2.8828 0
M  V30 37 H 2.749 -2.7178 -1.2359 0
M  V30 38 H 0.4776 -2.0208 -3.6792 0
M  V30 39 H -0.8119 -1.4793 -2.7005 0
M  V30 40 H -4.9233 -0.1262 -1.4833 0
M  V30 41 H -4.5796 0.8523 -2.9378 0
M  V30 42 H -4.4616 1.5888 -1.3274 0
M  V30 43 H 3.2742 2.4794 1.922 0
M  V30 END ATOM
M  V30 BEGIN BOND
M  V30 1 2 1 2
M  V30 2 1 2 3
M  V30 3 1 2 4
M  V30 4 1 4 5
M  V30 5 2 4 6
M  V30 6 1 5 7
M  V30 7 1 6 8
M  V30 8 1 7 9
M  V30 9 1 7 10
M  V30 10 1 8 11
M  V30 11 1 9 12
M  V30 12 1 10 13
M  V30 13 1 10 14
M  V30 14 2 11 15
M  V30 15 1 12 16
M  V30 16 1 14 17
M  V30 17 1 14 18
M  V30 18 1 15 19
M  V30 19 1 15 20
M  V30 20 2 16 21
M  V30 21 1 16 22
M  V30 22 1 18 23
M  V30 23 1 8 9
M  V30 24 1 3 24
M  V30 25 1 6 25
M  V30 26 1 7 26
M  V30 27 1 8 27
M  V30 28 1 9 28
M  V30 29 1 10 29
M  V30 30 1 12 30
M  V30 31 1 13 31
M  V30 32 1 14 32
M  V30 33 1 17 33
M  V30 34 1 18 34
M  V30 35 1 18 35
M  V30 36 1 19 36
M  V30 37 1 19 37
M  V30 38 1 20 38
M  V30 39 1 20 39
M  V30 40 1 22 40
M  V30 41 1 22 41
M  V30 42 1 22 42
M  V30 43 1 23 43
M  V30 END BOND
M  V30 BEGIN COLLECTION
M  V30 MDLV30/STEABS ATOMS=(5 7 8 9 10 14)
M  V30 END COLLECTION
M  V30 END CTAB
M  END
>  <level_0>
5448

>  <index>
5448

>  <NO.>
5449

>  <Name>
zanamivir

>  <SMILES>
CC(=O)N[C@@H]1[C@@H](N=C(N)N)C=C(C(=O)O)O[C@H]1[C@H](O)[C@H](O)CO

>  <logBB>


>  <Class>
-1

>  <MW>
332.13

>  <nHBAcc>
7

>  <nHBDon>
7

>  <SLogP>
-3.79

>  <TopoPSA>
200.72

>  <MMFF94 Energy>
-79.923

$$$$
CC(=O)O[C@H]1C[C@@H]2CC[C@@H]3[C@H](CC[C@@]4(C)[C@H]3C[C@H]([N+]3(C)CCCCC3)[C@@H]4OC(C)=O)[C@@]2(C)C[C@@H]1N1CCCCC1
Actelion Java MolfileCreator 2.0

  0  0  0  0  0  0              0 V3000
M  V30 BEGIN CTAB
M  V30 COUNTS 97 102 0 0 0
M  V30 BEGIN ATOM
M  V30 1 O -3.7608 -0.7992 5.846 0
M  V30 2 C -4.0608 -1.0969 4.6996 0
M  V30 3 O -3.7788 -0.3637 3.5885 0
M  V30 4 C -4.7937 -2.3447 4.3133 0
M  V30 5 C -3.0839 0.8953 3.8028 0 CFG=2
M  V30 6 C -3.4155 1.824 2.5897 0 CFG=1
M  V30 7 C -1.5757 0.637 3.9395 0
M  V30 8 N -3.0368 3.2574 2.7453 0
M  V30 9 C -2.7766 1.1847 1.3124 0
M  V30 10 C -1.0021 0.0107 2.6593 0 CFG=1
M  V30 11 C -3.3444 3.853 4.059 0
M  V30 12 C -3.6001 4.1378 1.6988 0
M  V30 13 C -1.2444 0.8881 1.3924 0 CFG=1
M  V30 14 C 0.4688 -0.3846 2.8223 0
M  V30 15 C -4.8428 4.0336 4.3092 0
M  V30 16 C -5.108 4.3797 1.8287 0
M  V30 17 C -0.7789 0.0322 0.1512 0 CFG=2
M  V30 18 C -0.4563 2.2209 1.4428 0
M  V30 19 C 0.9485 -1.1805 1.609 0
M  V30 20 C -5.4756 4.8914 3.2179 0
M  V30 21 C 0.7083 -0.4382 0.2863 0 CFG=1
M  V30 22 C -1.0498 0.6962 -1.2237 0
M  V30 23 C 1.0504 -1.3109 -0.9263 0 CFG=1
M  V30 24 C -0.5576 -0.1435 -2.4178 0
M  V30 25 C 0.916 -0.5543 -2.2637 0 CFG=2
M  V30 26 C 2.4398 -1.9365 -1.0204 0
M  V30 27 C 1.3978 -1.6423 -3.2704 0 CFG=2
M  V30 28 C 1.8018 0.7132 -2.3777 0
M  V30 29 C 2.4384 -2.5098 -2.4483 0 CFG=1
M  V30 30 O 1.9004 -1.0611 -4.4781 0
M  V30 31 N 3.8266 -2.8486 -3.0696 0 CHG=1
M  V30 32 C 0.9942 -0.9153 -5.4895 0
M  V30 33 C 4.7119 -1.6578 -3.4752 0
M  V30 34 C 4.6122 -3.8514 -2.1817 0
M  V30 35 C 3.5315 -3.6435 -4.38 0
M  V30 36 O -0.1463 -1.3487 -5.4728 0
M  V30 37 C 1.6123 -0.1731 -6.6334 0
M  V30 38 C 5.5424 -1.0635 -2.348 0
M  V30 39 C 5.4229 -3.2012 -1.0704 0
M  V30 40 C 6.3376 -2.1133 -1.5974 0
M  V30 41 H -5.7295 -2.0849 3.812 0
M  V30 42 H -4.1646 -2.9566 3.6621 0
M  V30 43 H -5.0294 -2.9201 5.2131 0
M  V30 44 H -3.4792 1.3287 4.726 0
M  V30 45 H -4.5024 1.7621 2.4507 0
M  V30 46 H -1.0509 1.5633 4.1948 0
M  V30 47 H -1.4019 -0.0566 4.7711 0
M  V30 48 H -3.3001 0.2369 1.1207 0
M  V30 49 H -2.9971 1.7948 0.4328 0
M  V30 50 H -1.5487 -0.9336 2.5116 0
M  V30 51 H -2.859 4.8378 4.1104 0
M  V30 52 H -2.8808 3.2934 4.8766 0
M  V30 53 H -3.0847 5.1064 1.7579 0
M  V30 54 H -3.3733 3.7747 0.693 0
M  V30 55 H 0.5918 -1.0052 3.7183 0
M  V30 56 H 1.099 0.4997 2.9682 0
M  V30 57 H -5.3433 3.0592 4.3521 0
M  V30 58 H -4.9979 4.5116 5.2833 0
M  V30 59 H -5.6608 3.4573 1.6176 0
M  V30 60 H -5.4266 5.111 1.0768 0
M  V30 61 H -1.3941 -0.8818 0.1576 0
M  V30 62 H 0.6197 2.0845 1.3147 0
M  V30 63 H -0.5718 2.7433 2.3947 0
M  V30 64 H -0.7873 2.9054 0.6546 0
M  V30 65 H 0.4312 -2.1485 1.5889 0
M  V30 66 H 2.0162 -1.3973 1.7304 0
M  V30 67 H -5.1243 5.9254 3.3244 0
M  V30 68 H -6.5645 4.9115 3.3368 0
M  V30 69 H 1.3744 0.4293 0.2881 0
M  V30 70 H -2.1258 0.8539 -1.3563 0
M  V30 71 H -0.5874 1.6874 -1.266 0
M  V30 72 H 0.3328 -2.1488 -0.9237 0
M  V30 73 H -0.7078 0.4241 -3.3435 0
M  V30 74 H -1.1891 -1.038 -2.4973 0
M  V30 75 H 3.2028 -1.1821 -0.8442 0
M  V30 76 H 2.5575 -2.7298 -0.2755 0
M  V30 77 H 0.5681 -2.326 -3.499 0
M  V30 78 H 1.6066 1.444 -1.5889 0
M  V30 79 H 2.8678 0.48 -2.3359 0
M  V30 80 H 1.6225 1.2277 -3.329 0
M  V30 81 H 1.9603 -3.497 -2.3494 0
M  V30 82 H 5.4015 -2.03 -4.2435 0
M  V30 83 H 4.0944 -0.8899 -3.9385 0
M  V30 84 H 5.3054 -4.3886 -2.8408 0
M  V30 85 H 3.8948 -4.5773 -1.7829 0
M  V30 86 H 2.8801 -4.487 -4.1335 0
M  V30 87 H 3.062 -2.9851 -5.1093 0
M  V30 88 H 4.4794 -4.008 -4.7889 0
M  V30 89 H 0.8604 -0.0159 -7.412 0
M  V30 90 H 1.9668 0.8031 -6.2928 0
M  V30 91 H 2.4357 -0.7573 -7.0512 0
M  V30 92 H 4.9209 -0.495 -1.6538 0
M  V30 93 H 6.2394 -0.3326 -2.7765 0
M  V30 94 H 4.7802 -2.7977 -0.2851 0
M  V30 95 H 6.0318 -3.9729 -0.5838 0
M  V30 96 H 7.0912 -2.5526 -2.2623 0
M  V30 97 H 6.8795 -1.647 -0.7669 0
M  V30 END ATOM
M  V30 BEGIN BOND
M  V30 1 2 1 2
M  V30 2 1 2 3
M  V30 3 1 2 4
M  V30 4 1 3 5
M  V30 5 1 5 6
M  V30 6 1 5 7
M  V30 7 1 6 8
M  V30 8 1 6 9
M  V30 9 1 7 10
M  V30 10 1 8 11
M  V30 11 1 8 12
M  V30 12 1 9 13
M  V30 13 1 10 14
M  V30 14 1 11 15
M  V30 15 1 12 16
M  V30 16 1 13 17
M  V30 17 1 13 18
M  V30 18 1 14 19
M  V30 19 1 15 20
M  V30 20 1 17 21
M  V30 21 1 17 22
M  V30 22 1 21 23
M  V30 23 1 22 24
M  V30 24 1 23 25
M  V30 25 1 23 26
M  V30 26 1 25 27
M  V30 27 1 25 28
M  V30 28 1 26 29
M  V30 29 1 27 30
M  V30 30 1 29 31
M  V30 31 1 30 32
M  V30 32 1 31 33
M  V30 33 1 31 34
M  V30 34 1 31 35
M  V30 35 2 32 36
M  V30 36 1 32 37
M  V30 37 1 33 38
M  V30 38 1 34 39
M  V30 39 1 38 40
M  V30 40 1 10 13
M  V30 41 1 16 20
M  V30 42 1 19 21
M  V30 43 1 24 25
M  V30 44 1 27 29
M  V30 45 1 39 40
M  V30 46 1 4 41
M  V30 47 1 4 42
M  V30 48 1 4 43
M  V30 49 1 5 44
M  V30 50 1 6 45
M  V30 51 1 7 46
M  V30 52 1 7 47
M  V30 53 1 9 48
M  V30 54 1 9 49
M  V30 55 1 10 50
M  V30 56 1 11 51
M  V30 57 1 11 52
M  V30 58 1 12 53
M  V30 59 1 12 54
M  V30 60 1 14 55
M  V30 61 1 14 56
M  V30 62 1 15 57
M  V30 63 1 15 58
M  V30 64 1 16 59
M  V30 65 1 16 60
M  V30 66 1 17 61
M  V30 67 1 18 62
M  V30 68 1 18 63
M  V30 69 1 18 64
M  V30 70 1 19 65
M  V30 71 1 19 66
M  V30 72 1 20 67
M  V30 73 1 20 68
M  V30 74 1 21 69
M  V30 75 1 22 70
M  V30 76 1 22 71
M  V30 77 1 23 72
M  V30 78 1 24 73
M  V30 79 1 24 74
M  V30 80 1 26 75
M  V30 81 1 26 76
M  V30 82 1 27 77
M  V30 83 1 28 78
M  V30 84 1 28 79
M  V30 85 1 28 80
M  V30 86 1 29 81
M  V30 87 1 33 82
M  V30 88 1 33 83
M  V30 89 1 34 84
M  V30 90 1 34 85
M  V30 91 1 35 86
M  V30 92 1 35 87
M  V30 93 1 35 88
M  V30 94 1 37 89
M  V30 95 1 37 90
M  V30 96 1 37 91
M  V30 97 1 38 92
M  V30 98 1 38 93
M  V30 99 1 39 94
M  V30 100 1 39 95
M  V30 101 1 40 96
M  V30 102 1 40 97
M  V30 END BOND
M  V30 BEGIN COLLECTION
M  V30 MDLV30/STEABS ATOMS=(10 5 6 10 13 17 21 23 25 27 29)
M  V30 END COLLECTION
M  V30 END CTAB
M  END
>  <level_0>
5450

>  <index>
5450

>  <NO.>
5451

>  <Name>
vecuronium bromide

>  <SMILES>
CC(=O)O[C@H]1C[C@@H]2CC[C@@H]3[C@H](CC[C@@]4(C)[C@H]3C[C@H]([N+]3(C)CCCCC3)[C@@H]4OC(C)=O)[C@@]2(C)C[C@@H]1N1CCCCC1

>  <logBB>


>  <Class>
-1

>  <MW>
557.43

>  <nHBAcc>
5

>  <nHBDon>
0

>  <SLogP>
5.97

>  <TopoPSA>
55.84

>  <MMFF94 Energy>
137.41

$$$$
CC(C)C[C@H](NC(=O)CNC(=O)[C@H](Cc1ccc(O)cc1)NC(=O)[C@H](CO)NC(=O)[C@H](Cc1c[nH]c2ccccc12)NC(=O)[C@H](Cc1cnc[nH]1)NC(=O)[C@@H]1CCC(=O)N1)C(=O)N[C@@H](CCCN=C(N)N)C(=O)N1CCC[C@H]1C(=O)NCC(N)=O
Actelion Java MolfileCreator 2.0

  0  0  0  0  0  0              0 V3000
M  V30 BEGIN CTAB
M  V30 COUNTS 160 165 0 0 0
M  V30 BEGIN ATOM
M  V30 1 O 5.8538 4.8235 -7.9963 0
M  V30 2 C 4.7996 4.2464 -8.19 0
M  V30 3 N 3.629 4.8365 -8.6085 0
M  V30 4 C 4.5333 2.7792 -7.9789 0
M  V30 5 C 2.5215 3.9192 -8.6372 0 CFG=1
M  V30 6 C 3.2113 2.5618 -8.7135 0
M  V30 7 C 1.6214 4.0573 -7.3923 0
M  V30 8 O 1.7956 4.9025 -6.5179 0
M  V30 9 N 0.5634 3.179 -7.3535 0
M  V30 10 C -0.4532 3.2549 -6.31 0 CFG=2
M  V30 11 C -1.1444 1.8886 -6.1817 0
M  V30 12 C -1.5056 4.3483 -6.5795 0
M  V30 13 O -1.3912 1.1809 -7.1592 0
M  V30 14 N -1.517 1.5413 -4.9079 0
M  V30 15 C -2.0032 4.394 -7.9919 0
M  V30 16 C -2.2159 0.2898 -4.6122 0 CFG=2
M  V30 17 N -2.6388 3.351 -8.6239 0
M  V30 18 C -1.9511 5.3922 -8.9419 0
M  V30 19 C -2.8985 0.4688 -3.2447 0
M  V30 20 C -1.2473 -0.9051 -4.5738 0
M  V30 21 C -2.9165 3.7485 -9.9001 0
M  V30 22 N -2.5105 4.9765 -10.121 0
M  V30 23 O -2.4254 1.1933 -2.3673 0
M  V30 24 N -4.0426 -0.2651 -3.0631 0
M  V30 25 C -1.9438 -2.213 -4.3582 0
M  V30 26 C -4.8064 -0.2425 -1.8149 0 CFG=2
M  V30 27 C -2.779 -2.9038 -5.2926 0
M  V30 28 C -1.9416 -2.9574 -3.1952 0
M  V30 29 C -4.1399 -1.2132 -0.8258 0
M  V30 30 C -6.2626 -0.6615 -2.0481 0
M  V30 31 C -3.2997 -4.0205 -4.6385 0
M  V30 32 C -3.1623 -2.665 -6.6282 0
M  V30 33 N -2.7781 -4.0277 -3.366 0
M  V30 34 O -4.5509 -2.3533 -0.6227 0
M  V30 35 N -2.998 -0.7183 -0.2289 0
M  V30 36 O -6.9197 0.29 -2.8866 0
M  V30 37 C -4.189 -4.9103 -5.2518 0
M  V30 38 C -4.0479 -3.5473 -7.2573 0
M  V30 39 C -2.1909 -1.5376 0.6786 0 CFG=2
M  V30 40 C -4.5536 -4.6517 -6.5761 0
M  V30 41 C -2.7731 -1.6257 2.1059 0
M  V30 42 C -0.7114 -1.1174 0.7127 0
M  V30 43 O -2.3864 -2.4608 2.9235 0
M  V30 44 N -3.6698 -0.6382 2.4423 0
M  V30 45 C -0.447 0.332 1.0547 0
M  V30 46 C -4.2957 -0.5916 3.7474 0
M  V30 47 C -0.1374 1.2581 0.0477 0
M  V30 48 C -0.4981 0.7722 2.3836 0
M  V30 49 C -3.3774 0.114 4.743 0
M  V30 50 C 0.1074 2.5973 0.3622 0
M  V30 51 C -0.2667 2.1111 2.6978 0
M  V30 52 O -3.3727 1.3345 4.8824 0
M  V30 53 N -2.4942 -0.7203 5.3864 0
M  V30 54 C 0.0393 3.0118 1.6872 0
M  V30 55 C -1.4978 -0.2258 6.3306 0 CFG=2
M  V30 56 O 0.2729 4.3065 2.0407 0
M  V30 57 C -0.4198 -1.3163 6.4589 0
M  V30 58 C -2.1312 0.0619 7.7005 0
M  V30 59 O -0.6856 -2.4799 6.7544 0
M  V30 60 N 0.8563 -0.8956 6.1802 0
M  V30 61 C -1.1645 0.6511 8.7483 0
M  V30 62 C 2.0161 -1.7817 6.2403 0 CFG=2
M  V30 63 C -0.5958 2.0053 8.3216 0
M  V30 64 C -1.886 0.7959 10.0912 0
M  V30 65 C 3.2755 -0.885 6.2686 0
M  V30 66 C 2.0575 -2.7561 5.0468 0
M  V30 67 O 3.2015 0.3067 5.942 0
M  V30 68 N 4.4865 -1.4598 6.5732 0
M  V30 69 C 2.2113 -2.0435 3.7006 0
M  V30 70 C 5.7489 -0.7347 6.3671 0 CFG=2
M  V30 71 C 4.7201 -2.7245 7.242 0
M  V30 72 C 2.3231 -3.012 2.5269 0
M  V30 73 C 6.0692 -0.7329 4.8511 0
M  V30 74 C 6.7856 -1.5234 7.1813 0
M  V30 75 C 5.9595 -2.4463 8.0729 0
M  V30 76 N 2.6001 -2.2163 1.3279 0
M  V30 77 O 6.8431 -1.5247 4.3178 0
M  V30 78 N 5.3383 0.1789 4.125 0
M  V30 79 C 2.6736 -2.8308 0.2047 0
M  V30 80 C 5.4033 0.2327 2.6781 0
M  V30 81 N 2.9224 -2.1259 -0.9108 0
M  V30 82 N 2.5259 -4.1412 -0.0512 0
M  V30 83 C 4.3356 1.1819 2.1439 0
M  V30 84 O 4.3888 2.4013 2.2806 0
M  V30 85 N 3.2394 0.5916 1.5881 0
M  V30 86 H 3.5575 5.8431 -8.6944 0
M  V30 87 H 4.432 2.5887 -6.906 0
M  V30 88 H 5.3371 2.1689 -8.3971 0
M  V30 89 H 1.9139 4.1199 -9.5256 0
M  V30 90 H 2.641 1.7319 -8.2871 0
M  V30 91 H 3.4223 2.3176 -9.7625 0
M  V30 92 H 0.3919 2.5386 -8.1219 0
M  V30 93 H 0.0477 3.4734 -5.3585 0
M  V30 94 H -1.0593 5.3241 -6.3468 0
M  V30 95 H -2.3613 4.2297 -5.9031 0
M  V30 96 H -1.3225 2.1523 -4.1177 0
M  V30 97 H -2.9869 0.1481 -5.3788 0
M  V30 98 H -2.8149 2.4277 -8.2438 0
M  V30 99 H -1.5309 6.3854 -8.8407 0
M  V30 100 H -0.5043 -0.7526 -3.7791 0
M  V30 101 H -0.6796 -0.9598 -5.511 0
M  V30 102 H -3.4066 3.1029 -10.6165 0
M  V30 103 H -4.3407 -0.9165 -3.7822 0
M  V30 104 H -4.7712 0.7749 -1.4078 0
M  V30 105 H -1.4461 -2.8003 -2.2464 0
M  V30 106 H -6.3234 -1.6408 -2.5359 0
M  V30 107 H -6.8061 -0.7119 -1.0984 0
M  V30 108 H -2.7722 -1.8097 -7.1735 0
M  V30 109 H -2.9983 -4.7153 -2.6572 0
M  V30 110 H -2.6514 0.1948 -0.5254 0
M  V30 111 H -7.8424 -0.0057 -2.9831 0
M  V30 112 H -4.5831 -5.7737 -4.7251 0
M  V30 113 H -4.3409 -3.3692 -8.2892 0
M  V30 114 H -2.2303 -2.5667 0.2965 0
M  V30 115 H -5.2397 -5.3271 -7.0828 0
M  V30 116 H -0.2638 -1.3315 -0.2667 0
M  V30 117 H -0.1696 -1.7442 1.4298 0
M  V30 118 H -3.826 0.1185 1.7881 0
M  V30 119 H -4.5245 -1.6056 4.0912 0
M  V30 120 H -5.2297 -0.0288 3.6616 0
M  V30 121 H -0.0859 0.9438 -0.9922 0
M  V30 122 H -0.7127 0.076 3.19 0
M  V30 123 H 0.3404 3.2991 -0.4322 0
M  V30 124 H -0.3205 2.4495 3.7291 0
M  V30 125 H -2.4567 -1.7033 5.1144 0
M  V30 126 H -1.0693 0.6858 5.9023 0
M  V30 127 H 0.6598 4.7739 1.2826 0
M  V30 128 H -2.9788 0.7482 7.5728 0
M  V30 129 H -2.5586 -0.8687 8.0987 0
M  V30 130 H 1.043 0.0723 5.9276 0
M  V30 131 H -0.3276 -0.0415 8.8979 0
M  V30 132 H 1.9419 -2.3423 7.1771 0
M  V30 133 H 0.0403 1.9117 7.4369 0
M  V30 134 H -1.3958 2.7176 8.0935 0
M  V30 135 H 0.0215 2.435 9.1179 0
M  V30 136 H -2.2667 -0.1716 10.4348 0
M  V30 137 H -2.7327 1.4868 10.0158 0
M  V30 138 H -1.2053 1.1769 10.8599 0
M  V30 139 H 2.8912 -3.4554 5.174 0
M  V30 140 H 1.144 -3.3619 5.0271 0
M  V30 141 H 1.3655 -1.3681 3.5333 0
M  V30 142 H 3.1094 -1.4216 3.7172 0
M  V30 143 H 5.6478 0.2951 6.7274 0
M  V30 144 H 3.872 -3.0377 7.8535 0
M  V30 145 H 4.9198 -3.4811 6.4762 0
M  V30 146 H 1.3848 -3.5692 2.4227 0
M  V30 147 H 3.1413 -3.7188 2.7077 0
M  V30 148 H 7.4517 -2.1243 6.5536 0
M  V30 149 H 7.4206 -0.857 7.7743 0
M  V30 150 H 5.6836 -1.9153 8.9922 0
M  V30 151 H 6.4948 -3.3577 8.3527 0
M  V30 152 H 4.6366 0.7446 4.6057 0
M  V30 153 H 5.2708 -0.7758 2.2739 0
M  V30 154 H 6.3912 0.5993 2.3827 0
M  V30 155 H 3.1972 -2.5595 -1.7765 0
M  V30 156 H 3.0787 -1.1313 -0.8109 0
M  V30 157 H 2.3515 -4.7979 0.6954 0
M  V30 158 H 2.5566 -4.5075 -0.9889 0
M  V30 159 H 2.4598 1.1795 1.3242 0
M  V30 160 H 3.0917 -0.4199 1.5626 0
M  V30 END ATOM
M  V30 BEGIN BOND
M  V30 1 2 1 2
M  V30 2 1 2 3
M  V30 3 1 2 4
M  V30 4 1 3 5
M  V30 5 1 4 6
M  V30 6 1 5 7
M  V30 7 2 7 8
M  V30 8 1 7 9
M  V30 9 1 9 10
M  V30 10 1 10 11
M  V30 11 1 10 12
M  V30 12 2 11 13
M  V30 13 1 11 14
M  V30 14 1 12 15
M  V30 15 1 14 16
M  V30 16 1 15 17
M  V30 17 2 15 18
M  V30 18 1 16 19
M  V30 19 1 16 20
M  V30 20 1 17 21
M  V30 21 1 18 22
M  V30 22 2 19 23
M  V30 23 1 19 24
M  V30 24 1 20 25
M  V30 25 1 24 26
M  V30 26 1 25 27
M  V30 27 2 25 28
M  V30 28 1 26 29
M  V30 29 1 26 30
M  V30 30 2 27 31
M  V30 31 1 27 32
M  V30 32 1 28 33
M  V30 33 2 29 34
M  V30 34 1 29 35
M  V30 35 1 30 36
M  V30 36 1 31 37
M  V30 37 2 32 38
M  V30 38 1 35 39
M  V30 39 2 37 40
M  V30 40 1 39 41
M  V30 41 1 39 42
M  V30 42 2 41 43
M  V30 43 1 41 44
M  V30 44 1 42 45
M  V30 45 1 44 46
M  V30 46 2 45 47
M  V30 47 1 45 48
M  V30 48 1 46 49
M  V30 49 1 47 50
M  V30 50 2 48 51
M  V30 51 2 49 52
M  V30 52 1 49 53
M  V30 53 2 50 54
M  V30 54 1 53 55
M  V30 55 1 54 56
M  V30 56 1 55 57
M  V30 57 1 55 58
M  V30 58 2 57 59
M  V30 59 1 57 60
M  V30 60 1 58 61
M  V30 61 1 60 62
M  V30 62 1 61 63
M  V30 63 1 61 64
M  V30 64 1 62 65
M  V30 65 1 62 66
M  V30 66 2 65 67
M  V30 67 1 65 68
M  V30 68 1 66 69
M  V30 69 1 68 70
M  V30 70 1 68 71
M  V30 71 1 69 72
M  V30 72 1 70 73
M  V30 73 1 70 74
M  V30 74 1 71 75
M  V30 75 1 72 76
M  V30 76 2 73 77
M  V30 77 1 73 78
M  V30 78 2 76 79
M  V30 79 1 78 80
M  V30 80 1 79 81
M  V30 81 1 79 82
M  V30 82 1 80 83
M  V30 83 2 83 84
M  V30 84 1 83 85
M  V30 85 1 5 6
M  V30 86 2 21 22
M  V30 87 1 31 33
M  V30 88 1 38 40
M  V30 89 1 51 54
M  V30 90 1 74 75
M  V30 91 1 3 86
M  V30 92 1 4 87
M  V30 93 1 4 88
M  V30 94 1 5 89
M  V30 95 1 6 90
M  V30 96 1 6 91
M  V30 97 1 9 92
M  V30 98 1 10 93
M  V30 99 1 12 94
M  V30 100 1 12 95
M  V30 101 1 14 96
M  V30 102 1 16 97
M  V30 103 1 17 98
M  V30 104 1 18 99
M  V30 105 1 20 100
M  V30 106 1 20 101
M  V30 107 1 21 102
M  V30 108 1 24 103
M  V30 109 1 26 104
M  V30 110 1 28 105
M  V30 111 1 30 106
M  V30 112 1 30 107
M  V30 113 1 32 108
M  V30 114 1 33 109
M  V30 115 1 35 110
M  V30 116 1 36 111
M  V30 117 1 37 112
M  V30 118 1 38 113
M  V30 119 1 39 114
M  V30 120 1 40 115
M  V30 121 1 42 116
M  V30 122 1 42 117
M  V30 123 1 44 118
M  V30 124 1 46 119
M  V30 125 1 46 120
M  V30 126 1 47 121
M  V30 127 1 48 122
M  V30 128 1 50 123
M  V30 129 1 51 124
M  V30 130 1 53 125
M  V30 131 1 55 126
M  V30 132 1 56 127
M  V30 133 1 58 128
M  V30 134 1 58 129
M  V30 135 1 60 130
M  V30 136 1 61 131
M  V30 137 1 62 132
M  V30 138 1 63 133
M  V30 139 1 63 134
M  V30 140 1 63 135
M  V30 141 1 64 136
M  V30 142 1 64 137
M  V30 143 1 64 138
M  V30 144 1 66 139
M  V30 145 1 66 140
M  V30 146 1 69 141
M  V30 147 1 69 142
M  V30 148 1 70 143
M  V30 149 1 71 144
M  V30 150 1 71 145
M  V30 151 1 72 146
M  V30 152 1 72 147
M  V30 153 1 74 148
M  V30 154 1 74 149
M  V30 155 1 75 150
M  V30 156 1 75 151
M  V30 157 1 78 152
M  V30 158 1 80 153
M  V30 159 1 80 154
M  V30 160 1 81 155
M  V30 161 1 81 156
M  V30 162 1 82 157
M  V30 163 1 82 158
M  V30 164 1 85 159
M  V30 165 1 85 160
M  V30 END BOND
M  V30 BEGIN COLLECTION
M  V30 MDLV30/STEABS ATOMS=(8 5 10 16 26 39 55 62 70)
M  V30 END COLLECTION
M  V30 END CTAB
M  END
>  <level_0>
5458

>  <index>
5458

>  <NO.>
5459

>  <Name>
gonadorelin

>  <SMILES>
CC(C)C[C@H](NC(=O)CNC(=O)[C@H](Cc1ccc(O)cc1)NC(=O)[C@H](CO)NC(=O)[C@H](Cc1c[nH]c2ccccc12)NC(=O)[C@H](Cc1cnc[nH]1)NC(=O)[C@@H]1CCC(=O)N1)C(=O)N[C@@H](CCCN=C(N)N)C(=O)N1CCC[C@H]1C(=O)NCC(N)=O

>  <logBB>


>  <Class>
-1

>  <MW>
1181.57

>  <nHBAcc>
15

>  <nHBDon>
16

>  <SLogP>
-4.39

>  <TopoPSA>
474.63

>  <MMFF94 Energy>
-0.82325

$$$$
CC(C)C[C@H](NC(=O)[C@@H](COC(C)(C)C)NC(=O)[C@H](Cc1ccc(O)cc1)NC(=O)[C@H](CO)NC(=O)[C@H](Cc1c[nH]c2ccccc12)NC(=O)[C@H](Cc1cnc[nH]1)NC(=O)[C@@H]1CCC(=O)N1)C(=O)N[C@@H](CCCN=C(N)N)C(=O)N1CCC[C@H]1C(=O)NNC(N)=O
Actelion Java MolfileCreator 2.0

  0  0  0  0  0  0              0 V3000
M  V30 BEGIN CTAB
M  V30 COUNTS 175 180 0 0 0
M  V30 BEGIN ATOM
M  V30 1 O 7.5103 0.6307 -1.7353 0
M  V30 2 C 7.5349 1.7327 -2.2517 0
M  V30 3 N 6.9183 2.8646 -1.7658 0
M  V30 4 C 8.1899 2.0859 -3.5606 0
M  V30 5 C 6.9642 3.9667 -2.6967 0 CFG=1
M  V30 6 C 8.1828 3.6131 -3.5416 0
M  V30 7 C 5.6182 4.0349 -3.454 0
M  V30 8 O 4.5632 3.6423 -2.9522 0
M  V30 9 N 5.6346 4.6071 -4.7035 0
M  V30 10 C 4.4227 4.6612 -5.5361 0 CFG=2
M  V30 11 C 4.2421 3.2646 -6.1699 0
M  V30 12 C 4.531 5.7249 -6.6403 0
M  V30 13 O 4.595 2.9928 -7.3149 0
M  V30 14 N 3.7451 2.321 -5.3039 0
M  V30 15 C 4.7099 7.1191 -6.1305 0
M  V30 16 C 3.6413 0.9015 -5.6351 0 CFG=2
M  V30 17 N 5.1621 8.1407 -6.9326 0
M  V30 18 C 4.4935 7.7164 -4.9055 0
M  V30 19 C 2.657 0.2705 -4.6323 0
M  V30 20 C 5.0205 0.2242 -5.5331 0
M  V30 21 C 5.2253 9.2712 -6.1703 0
M  V30 22 N 4.835 9.0421 -4.939 0
M  V30 23 O 2.4263 0.7688 -3.5292 0
M  V30 24 N 2.0996 -0.9212 -5.0192 0
M  V30 25 C 5.0264 -1.2137 -5.9486 0
M  V30 26 C 1.2209 -1.6995 -4.1435 0 CFG=2
M  V30 27 C 4.8381 -1.7314 -7.269 0
M  V30 28 C 5.186 -2.2999 -5.1108 0
M  V30 29 C 2.089 -2.485 -3.1384 0
M  V30 30 C 0.3585 -2.676 -4.9521 0
M  V30 31 C 4.8453 -3.1236 -7.1751 0
M  V30 32 C 4.6394 -1.1421 -8.5343 0
M  V30 33 N 5.0611 -3.4415 -5.8544 0
M  V30 34 O 2.2535 -3.702 -3.1996 0
M  V30 35 N 2.6811 -1.7055 -2.1648 0
M  V30 36 O -0.4968 -1.9639 -5.8483 0
M  V30 37 C 4.6589 -3.9577 -8.2835 0
M  V30 38 C 4.4529 -1.9621 -9.6529 0
M  V30 39 C 3.5583 -2.2707 -1.1321 0 CFG=2
M  V30 40 C 4.4615 -3.349 -9.5263 0
M  V30 41 C 2.773 -2.8794 0.0505 0
M  V30 42 C 4.6122 -1.2675 -0.625 0
M  V30 43 O 3.3171 -3.5311 0.9398 0
M  V30 44 N 1.4357 -2.5758 0.0715 0
M  V30 45 C 4.0573 -0.0512 0.0857 0
M  V30 46 C 0.5316 -2.938 1.1563 0 CFG=1
M  V30 47 C 3.846 1.1448 -0.6118 0
M  V30 48 C 3.7401 -0.1004 1.4511 0
M  V30 49 C -0.7902 -2.1904 0.891 0
M  V30 50 C 0.2862 -4.4487 1.2609 0
M  V30 51 C 3.3022 2.2601 0.028 0
M  V30 52 C 3.2015 1.0154 2.0947 0
M  V30 53 O -0.9568 -1.49 -0.11 0
M  V30 54 N -1.7495 -2.3321 1.8608 0
M  V30 55 O -0.3093 -4.7353 2.5336 0
M  V30 56 C 2.9804 2.1841 1.3777 0
M  V30 57 C -3.0048 -1.5983 1.851 0 CFG=2
M  V30 58 C -0.2397 -6.0952 2.9903 0
M  V30 59 O 2.4422 3.2483 2.0392 0
M  V30 60 C -3.6008 -1.5995 3.2713 0
M  V30 61 C -4.0132 -2.0954 0.7982 0
M  V30 62 C -0.7592 -7.0906 1.9466 0
M  V30 63 C -1.1481 -6.1493 4.2271 0
M  V30 64 C 1.1908 -6.4457 3.4187 0
M  V30 65 O -3.2419 -2.3922 4.1409 0
M  V30 66 N -4.5816 -0.6612 3.4818 0
M  V30 67 C -4.7436 -3.4237 1.0929 0
M  V30 68 C -5.2571 -0.5093 4.765 0 CFG=2
M  V30 69 C -5.7879 -3.6822 9.0E-4 0
M  V30 70 C -3.8025 -4.6216 1.1872 0
M  V30 71 C -6.615 0.1842 4.5205 0
M  V30 72 C -4.4097 0.2926 5.7668 0
M  V30 73 O -6.8025 0.8779 3.5113 0
M  V30 74 N -7.5885 0.079 5.4873 0
M  V30 75 C -3.9729 1.68 5.2612 0
M  V30 76 C -8.8178 0.8756 5.4208 0 CFG=2
M  V30 77 C -7.6174 -0.8503 6.6075 0
M  V30 78 C -3.8199 2.6796 6.4107 0
M  V30 79 C -8.4987 2.3266 5.8494 0
M  V30 80 C -9.7672 0.1687 6.3874 0
M  V30 81 C -8.8293 -0.4365 7.4278 0
M  V30 82 N -5.1574 2.9765 6.9187 0
M  V30 83 O -8.744 2.7779 6.9684 0
M  V30 84 N -7.8465 3.0443 4.857 0
M  V30 85 C -5.2783 3.6038 8.0298 0
M  V30 86 N -7.2217 4.2454 5.2021 0
M  V30 87 N -6.5067 3.8517 8.5106 0
M  V30 88 N -4.3157 4.091 8.8297 0
M  V30 89 C -7.6548 5.4671 4.7775 0
M  V30 90 O -7.1059 6.5201 5.0777 0
M  V30 91 N -8.7464 5.4438 3.9758 0
M  V30 92 H 6.3221 2.8172 -0.9455 0
M  V30 93 H 7.5822 1.6931 -4.3807 0
M  V30 94 H 9.2039 1.683 -3.6142 0
M  V30 95 H 7.0985 4.9046 -2.1495 0
M  V30 96 H 8.2 4.0319 -4.5496 0
M  V30 97 H 9.0894 3.963 -3.0299 0
M  V30 98 H 6.4795 5.0158 -5.0795 0
M  V30 99 H 3.5576 4.8678 -4.8935 0
M  V30 100 H 3.6287 5.6939 -7.2646 0
M  V30 101 H 5.3768 5.4876 -7.3 0
M  V30 102 H 3.5434 2.5882 -4.3354 0
M  V30 103 H 3.2269 0.8169 -6.6461 0
M  V30 104 H 5.4044 8.0766 -7.9123 0
M  V30 105 H 4.1181 7.2645 -3.9953 0
M  V30 106 H 5.3875 0.3022 -4.5002 0
M  V30 107 H 5.7497 0.7633 -6.1512 0
M  V30 108 H 5.558 10.2226 -6.5641 0
M  V30 109 H 2.34 -1.3204 -5.9202 0
M  V30 110 H 0.5781 -1.0012 -3.5941 0
M  V30 111 H 5.3546 -2.3589 -4.0429 0
M  V30 112 H 0.9796 -3.3538 -5.5487 0
M  V30 113 H -0.2697 -3.2772 -4.2859 0
M  V30 114 H 4.635 -0.0609 -8.6483 0
M  V30 115 H 5.1107 -4.3824 -5.487 0
M  V30 116 H 2.5327 -0.6947 -2.1973 0
M  V30 117 H -1.0421 -2.6277 -6.3053 0
M  V30 118 H 4.6699 -5.0387 -8.1889 0
M  V30 119 H 4.3026 -1.5091 -10.6299 0
M  V30 120 H 4.0915 -3.1118 -1.5942 0
M  V30 121 H 4.3171 -3.9693 -10.408 0
M  V30 122 H 5.2211 -0.9331 -1.475 0
M  V30 123 H 5.3086 -1.7748 0.0557 0
M  V30 124 H 1.0736 -1.9465 -0.6405 0
M  V30 125 H 0.9556 -2.5529 2.0918 0
M  V30 126 H 4.1032 1.2197 -1.6662 0
M  V30 127 H 3.9094 -1.0095 2.0257 0
M  V30 128 H -0.3933 -4.7822 0.4682 0
M  V30 129 H 1.2272 -4.9926 1.1526 0
M  V30 130 H 3.139 3.1669 -0.5466 0
M  V30 131 H 2.953 0.9692 3.1509 0
M  V30 132 H -1.5684 -2.9554 2.6507 0
M  V30 133 H -2.7495 -0.5579 1.6081 0
M  V30 134 H 2.2862 3.957 1.3934 0
M  V30 135 H -4.78 -1.3166 0.6844 0
M  V30 136 H -3.5173 -2.1695 -0.1778 0
M  V30 137 H -0.1068 -7.1287 1.0676 0
M  V30 138 H -0.8197 -8.1043 2.3571 0
M  V30 139 H -1.7534 -6.8014 1.5903 0
M  V30 140 H -2.177 -5.8748 3.968 0
M  V30 141 H -1.1612 -7.1464 4.6796 0
M  V30 142 H -0.8185 -5.4291 4.9852 0
M  V30 143 H 1.871 -6.4986 2.5629 0
M  V30 144 H 1.593 -5.681 4.0929 0
M  V30 145 H 1.2292 -7.4147 3.9281 0
M  V30 146 H -4.863 -0.0266 2.74 0
M  V30 147 H -5.284 -3.3359 2.0433 0
M  V30 148 H -5.4415 -1.5133 5.1631 0
M  V30 149 H -6.5037 -2.8553 -0.0576 0
M  V30 150 H -5.3164 -3.7942 -0.9813 0
M  V30 151 H -6.3541 -4.5958 0.2114 0
M  V30 152 H -3.1746 -4.5595 2.0787 0
M  V30 153 H -3.1534 -4.6904 0.3081 0
M  V30 154 H -4.3671 -5.5573 1.2631 0
M  V30 155 H -4.9667 0.3984 6.7028 0
M  V30 156 H -3.5066 -0.2775 6.0194 0
M  V30 157 H -3.0149 1.5809 4.737 0
M  V30 158 H -4.6888 2.0854 4.5383 0
M  V30 159 H -9.2176 0.8876 4.4004 0
M  V30 160 H -6.6937 -0.8215 7.1875 0
M  V30 161 H -7.7403 -1.8584 6.1965 0
M  V30 162 H -3.3581 3.5974 6.0295 0
M  V30 163 H -3.1719 2.2525 7.1848 0
M  V30 164 H -10.2926 -0.6391 5.8632 0
M  V30 165 H -10.5174 0.8275 6.8344 0
M  V30 166 H -8.5428 0.3239 8.1637 0
M  V30 167 H -9.2774 -1.2761 7.9665 0
M  V30 168 H -7.4919 2.5635 4.0257 0
M  V30 169 H -6.4174 4.1844 5.8316 0
M  V30 170 H -6.692 4.5183 9.2401 0
M  V30 171 H -7.3145 3.5115 7.9856 0
M  V30 172 H -3.3421 4.0088 8.5805 0
M  V30 173 H -4.536 4.508 9.7196 0
M  V30 174 H -9.2146 4.5713 3.7982 0
M  V30 175 H -9.1166 6.3174 3.6348 0
M  V30 END ATOM
M  V30 BEGIN BOND
M  V30 1 2 1 2
M  V30 2 1 2 3
M  V30 3 1 2 4
M  V30 4 1 3 5
M  V30 5 1 4 6
M  V30 6 1 5 7
M  V30 7 2 7 8
M  V30 8 1 7 9
M  V30 9 1 9 10
M  V30 10 1 10 11
M  V30 11 1 10 12
M  V30 12 2 11 13
M  V30 13 1 11 14
M  V30 14 1 12 15
M  V30 15 1 14 16
M  V30 16 1 15 17
M  V30 17 2 15 18
M  V30 18 1 16 19
M  V30 19 1 16 20
M  V30 20 1 17 21
M  V30 21 1 18 22
M  V30 22 2 19 23
M  V30 23 1 19 24
M  V30 24 1 20 25
M  V30 25 1 24 26
M  V30 26 1 25 27
M  V30 27 2 25 28
M  V30 28 1 26 29
M  V30 29 1 26 30
M  V30 30 2 27 31
M  V30 31 1 27 32
M  V30 32 1 28 33
M  V30 33 2 29 34
M  V30 34 1 29 35
M  V30 35 1 30 36
M  V30 36 1 31 37
M  V30 37 2 32 38
M  V30 38 1 35 39
M  V30 39 2 37 40
M  V30 40 1 39 41
M  V30 41 1 39 42
M  V30 42 2 41 43
M  V30 43 1 41 44
M  V30 44 1 42 45
M  V30 45 1 44 46
M  V30 46 2 45 47
M  V30 47 1 45 48
M  V30 48 1 46 49
M  V30 49 1 46 50
M  V30 50 1 47 51
M  V30 51 2 48 52
M  V30 52 2 49 53
M  V30 53 1 49 54
M  V30 54 1 50 55
M  V30 55 2 51 56
M  V30 56 1 54 57
M  V30 57 1 55 58
M  V30 58 1 56 59
M  V30 59 1 57 60
M  V30 60 1 57 61
M  V30 61 1 58 62
M  V30 62 1 58 63
M  V30 63 1 58 64
M  V30 64 2 60 65
M  V30 65 1 60 66
M  V30 66 1 61 67
M  V30 67 1 66 68
M  V30 68 1 67 69
M  V30 69 1 67 70
M  V30 70 1 68 71
M  V30 71 1 68 72
M  V30 72 2 71 73
M  V30 73 1 71 74
M  V30 74 1 72 75
M  V30 75 1 74 76
M  V30 76 1 74 77
M  V30 77 1 75 78
M  V30 78 1 76 79
M  V30 79 1 76 80
M  V30 80 1 77 81
M  V30 81 1 78 82
M  V30 82 2 79 83
M  V30 83 1 79 84
M  V30 84 2 82 85
M  V30 85 1 84 86
M  V30 86 1 85 87
M  V30 87 1 85 88
M  V30 88 1 86 89
M  V30 89 2 89 90
M  V30 90 1 89 91
M  V30 91 1 5 6
M  V30 92 2 21 22
M  V30 93 1 31 33
M  V30 94 1 38 40
M  V30 95 1 52 56
M  V30 96 1 80 81
M  V30 97 1 3 92
M  V30 98 1 4 93
M  V30 99 1 4 94
M  V30 100 1 5 95
M  V30 101 1 6 96
M  V30 102 1 6 97
M  V30 103 1 9 98
M  V30 104 1 10 99
M  V30 105 1 12 100
M  V30 106 1 12 101
M  V30 107 1 14 102
M  V30 108 1 16 103
M  V30 109 1 17 104
M  V30 110 1 18 105
M  V30 111 1 20 106
M  V30 112 1 20 107
M  V30 113 1 21 108
M  V30 114 1 24 109
M  V30 115 1 26 110
M  V30 116 1 28 111
M  V30 117 1 30 112
M  V30 118 1 30 113
M  V30 119 1 32 114
M  V30 120 1 33 115
M  V30 121 1 35 116
M  V30 122 1 36 117
M  V30 123 1 37 118
M  V30 124 1 38 119
M  V30 125 1 39 120
M  V30 126 1 40 121
M  V30 127 1 42 122
M  V30 128 1 42 123
M  V30 129 1 44 124
M  V30 130 1 46 125
M  V30 131 1 47 126
M  V30 132 1 48 127
M  V30 133 1 50 128
M  V30 134 1 50 129
M  V30 135 1 51 130
M  V30 136 1 52 131
M  V30 137 1 54 132
M  V30 138 1 57 133
M  V30 139 1 59 134
M  V30 140 1 61 135
M  V30 141 1 61 136
M  V30 142 1 62 137
M  V30 143 1 62 138
M  V30 144 1 62 139
M  V30 145 1 63 140
M  V30 146 1 63 141
M  V30 147 1 63 142
M  V30 148 1 64 143
M  V30 149 1 64 144
M  V30 150 1 64 145
M  V30 151 1 66 146
M  V30 152 1 67 147
M  V30 153 1 68 148
M  V30 154 1 69 149
M  V30 155 1 69 150
M  V30 156 1 69 151
M  V30 157 1 70 152
M  V30 158 1 70 153
M  V30 159 1 70 154
M  V30 160 1 72 155
M  V30 161 1 72 156
M  V30 162 1 75 157
M  V30 163 1 75 158
M  V30 164 1 76 159
M  V30 165 1 77 160
M  V30 166 1 77 161
M  V30 167 1 78 162
M  V30 168 1 78 163
M  V30 169 1 80 164
M  V30 170 1 80 165
M  V30 171 1 81 166
M  V30 172 1 81 167
M  V30 173 1 84 168
M  V30 174 1 86 169
M  V30 175 1 87 170
M  V30 176 1 87 171
M  V30 177 1 88 172
M  V30 178 1 88 173
M  V30 179 1 91 174
M  V30 180 1 91 175
M  V30 END BOND
M  V30 BEGIN COLLECTION
M  V30 MDLV30/STEABS ATOMS=(9 5 10 16 26 39 46 57 68 76)
M  V30 END COLLECTION
M  V30 END CTAB
M  END
>  <level_0>
5459

>  <index>
5459

>  <NO.>
5460

>  <Name>
goserelin

>  <SMILES>
CC(C)C[C@H](NC(=O)[C@@H](COC(C)(C)C)NC(=O)[C@H](Cc1ccc(O)cc1)NC(=O)[C@H](CO)NC(=O)[C@H](Cc1c[nH]c2ccccc12)NC(=O)[C@H](Cc1cnc[nH]1)NC(=O)[C@@H]1CCC(=O)N1)C(=O)N[C@@H](CCCN=C(N)N)C(=O)N1CCC[C@H]1C(=O)NNC(N)=O

>  <logBB>


>  <Class>
-1

>  <MW>
1268.64

>  <nHBAcc>
16

>  <nHBDon>
17

>  <SLogP>
-3.11

>  <TopoPSA>
495.89

>  <MMFF94 Energy>
-6.9408

$$$$
CC(O)C(CO)NC(=O)C1CSSCC(NC(=O)C(N)Cc2ccccc2)C(=O)NC(Cc2ccccc2)C(=O)NC(Cc2c[nH]c3ccccc23)C(=O)NC(CCCCN)C(=O)NC(C(C)O)C(=O)N1
Actelion Java MolfileCreator 2.0

  0  0  0  0  0  0              0 V3000
M  V30 BEGIN CTAB
M  V30 COUNTS 137 141 0 0 0
M  V30 BEGIN ATOM
M  V30 1 S 1.9155 -0.8776 3.5939 0
M  V30 2 S 0.9344 0.0313 5.1525 0
M  V30 3 C 2.7041 0.5152 2.6925 0
M  V30 4 C -0.5395 0.8598 4.419 0
M  V30 5 C 2.3033 0.4609 1.2119 0
M  V30 6 C -1.6034 -0.0538 3.793 0
M  V30 7 N 2.045 1.7902 0.6872 0
M  V30 8 C 3.3226 -0.2526 0.3121 0
M  V30 9 N -1.2005 -0.6281 2.4981 0
M  V30 10 C -2.9069 0.7483 3.5461 0
M  V30 11 C 0.799 2.3617 0.7822 0
M  V30 12 O 3.7167 0.2275 -0.7498 0
M  V30 13 N 3.634 -1.5341 0.7002 0
M  V30 14 C -1.6432 -1.8547 2.0571 0
M  V30 15 O -3.1063 1.8902 3.9545 0
M  V30 16 N -3.9055 0.034 2.9193 0
M  V30 17 O -0.1532 1.7588 1.2755 0
M  V30 18 C 0.7215 3.8039 0.2492 0
M  V30 19 C 4.2713 -2.5179 -0.1779 0
M  V30 20 O -2.4516 -2.5238 2.7023 0
M  V30 21 C -1.1937 -2.2627 0.6467 0
M  V30 22 C -5.159 0.6305 2.4316 0
M  V30 23 N 1.479 3.8832 -1.026 0
M  V30 24 C 1.313 4.7921 1.2705 0
M  V30 25 C 3.2007 -2.9977 -1.1809 0
M  V30 26 C 5.5865 -2.1032 -0.8523 0
M  V30 27 N -2.4255 -2.2696 -0.1649 0
M  V30 28 C -0.5569 -3.6704 0.6295 0
M  V30 29 C -6.203 0.7319 3.5791 0
M  V30 30 C -5.6535 -0.1784 1.2174 0
M  V30 31 C 0.6641 4.747 2.6363 0
M  V30 32 O 2.6308 -4.0809 -1.035 0
M  V30 33 N 2.8498 -2.1003 -2.1618 0
M  V30 34 C 6.6698 -1.7682 0.1473 0
M  V30 35 C -2.6987 -1.7618 -1.3992 0
M  V30 36 O -0.0931 -3.9283 -0.7095 0
M  V30 37 C 0.6031 -3.8172 1.6051 0
M  V30 38 O -5.7911 1.6706 4.5845 0
M  V30 39 C -7.5898 1.1729 3.1286 0
M  V30 40 O -6.4705 0.6124 0.3634 0
M  V30 41 C -0.7182 4.9219 2.7879 0
M  V30 42 C 1.4483 4.5371 3.7804 0
M  V30 43 C 1.7949 -2.3657 -3.1446 0
M  V30 44 C 6.9873 -0.4317 0.4255 0
M  V30 45 C 7.3561 -2.7855 0.8245 0
M  V30 46 O -3.8617 -1.8664 -1.8021 0
M  V30 47 C -1.651 -0.9379 -2.182 0
M  V30 48 C -1.3048 4.8581 4.0528 0
M  V30 49 C 0.8601 4.4808 5.045 0
M  V30 50 C 0.7083 -1.2805 -2.9772 0
M  V30 51 C 2.3633 -2.3476 -4.571 0
M  V30 52 C 7.9704 -0.1187 1.3648 0
M  V30 53 C 8.3389 -2.4699 1.7639 0
M  V30 54 N -0.3928 -1.6833 -2.2546 0
M  V30 55 C -1.5378 0.4607 -1.5511 0
M  V30 56 C -0.5169 4.6376 5.1802 0
M  V30 57 O 0.8628 -0.1264 -3.3714 0
M  V30 58 C 1.4342 -2.9801 -5.5645 0
M  V30 59 C 8.6449 -1.1375 2.0346 0
M  V30 60 C -2.8356 1.2735 -1.6822 0
M  V30 61 C 0.4634 -2.3197 -6.3854 0
M  V30 62 C 1.3493 -4.3292 -5.8517 0
M  V30 63 C -2.7211 2.6148 -0.9585 0
M  V30 64 C -0.1844 -3.3004 -7.1372 0
M  V30 65 C 0.0687 -0.9766 -6.5567 0
M  V30 66 N 0.3757 -4.5084 -6.7964 0
M  V30 67 C -4.0181 3.4153 -1.0324 0
M  V30 68 C -1.2072 -3.0073 -8.0475 0
M  V30 69 C -0.9531 -0.6657 -7.4611 0
M  V30 70 N -3.8743 4.6534 -0.2703 0
M  V30 71 C -1.5808 -1.6686 -8.1944 0
M  V30 72 H 2.3944 1.4603 3.1498 0
M  V30 73 H 3.7889 0.4307 2.8156 0
M  V30 74 H -0.9869 1.4081 5.2559 0
M  V30 75 H -0.189 1.6167 3.7144 0
M  V30 76 H 1.3737 -0.1061 1.081 0
M  V30 77 H -1.8574 -0.8666 4.4847 0
M  V30 78 H 2.7161 2.2438 0.0654 0
M  V30 79 H -0.772 0.0323 1.8465 0
M  V30 80 H 3.3262 -1.8694 1.6065 0
M  V30 81 H -3.7731 -0.9728 2.8378 0
M  V30 82 H -0.3273 4.0361 0.0452 0
M  V30 83 H 4.4775 -3.3799 0.4709 0
M  V30 84 H -0.4897 -1.5285 0.253 0
M  V30 85 H -4.9159 1.6505 2.1046 0
M  V30 86 H 1.3337 4.809 -1.4319 0
M  V30 87 H 1.0575 3.2313 -1.6942 0
M  V30 88 H 2.3898 4.6032 1.3789 0
M  V30 89 H 1.2224 5.8181 0.8895 0
M  V30 90 H 5.9425 -2.9268 -1.4861 0
M  V30 91 H 5.4523 -1.2644 -1.5438 0
M  V30 92 H -3.2153 -2.7631 0.2376 0
M  V30 93 H -1.3094 -4.4343 0.8577 0
M  V30 94 H -6.2868 -0.2403 4.0787 0
M  V30 95 H -4.7996 -0.514 0.6202 0
M  V30 96 H -6.2115 -1.0673 1.5304 0
M  V30 97 H 3.2216 -1.1488 -2.1182 0
M  V30 98 H 0.7801 -4.3793 -0.6693 0
M  V30 99 H 1.061 -4.8079 1.5111 0
M  V30 100 H 1.3844 -3.088 1.3827 0
M  V30 101 H 0.2825 -3.6909 2.6428 0
M  V30 102 H -4.8411 1.8709 4.449 0
M  V30 103 H -8.2426 1.326 3.9955 0
M  V30 104 H -7.5414 2.1317 2.6008 0
M  V30 105 H -8.0636 0.4325 2.4785 0
M  V30 106 H -6.6277 0.0841 -0.4407 0
M  V30 107 H -1.3562 5.1015 1.9253 0
M  V30 108 H 2.5255 4.4132 3.6968 0
M  V30 109 H 1.3572 -3.349 -2.9416 0
M  V30 110 H 6.4712 0.3752 -0.0917 0
M  V30 111 H 7.1348 -3.8312 0.6233 0
M  V30 112 H -2.003 -0.8452 -3.2169 0
M  V30 113 H -2.3814 4.9712 4.158 0
M  V30 114 H 1.4754 4.3131 5.925 0
M  V30 115 H 3.3118 -2.9018 -4.5903 0
M  V30 116 H 2.6109 -1.3262 -4.8854 0
M  V30 117 H 8.2133 0.9205 1.5706 0
M  V30 118 H 8.8697 -3.264 2.2829 0
M  V30 119 H -0.4032 -2.6471 -1.9084 0
M  V30 120 H -0.7279 1.0342 -2.0117 0
M  V30 121 H -1.2852 0.3714 -0.4924 0
M  V30 122 H -0.9799 4.5867 6.1623 0
M  V30 123 H 9.4131 -0.8932 2.7637 0
M  V30 124 H -3.6783 0.7198 -1.2564 0
M  V30 125 H -3.0591 1.4401 -2.7426 0
M  V30 126 H 1.8976 -5.1766 -5.4615 0
M  V30 127 H -2.4642 2.4361 0.0926 0
M  V30 128 H -1.9056 3.1953 -1.4051 0
M  V30 129 H 0.5478 -0.1819 -5.9912 0
M  V30 130 H 0.1003 -5.3972 -7.1902 0
M  V30 131 H -4.853 2.8348 -0.6261 0
M  V30 132 H -4.2526 3.6572 -2.0743 0
M  V30 133 H -1.698 -3.7866 -8.621 0
M  V30 134 H -1.2573 0.3702 -7.5885 0
M  V30 135 H -4.7514 5.1726 -0.3234 0
M  V30 136 H -3.7619 4.419 0.7174 0
M  V30 137 H -2.3731 -1.4075 -8.8921 0
M  V30 END ATOM
M  V30 BEGIN BOND
M  V30 1 1 1 2
M  V30 2 1 1 3
M  V30 3 1 2 4
M  V30 4 1 3 5
M  V30 5 1 4 6
M  V30 6 1 5 7
M  V30 7 1 5 8
M  V30 8 1 6 9
M  V30 9 1 6 10
M  V30 10 1 7 11
M  V30 11 2 8 12
M  V30 12 1 8 13
M  V30 13 1 9 14
M  V30 14 2 10 15
M  V30 15 1 10 16
M  V30 16 2 11 17
M  V30 17 1 11 18
M  V30 18 1 13 19
M  V30 19 2 14 20
M  V30 20 1 14 21
M  V30 21 1 16 22
M  V30 22 1 18 23
M  V30 23 1 18 24
M  V30 24 1 19 25
M  V30 25 1 19 26
M  V30 26 1 21 27
M  V30 27 1 21 28
M  V30 28 1 22 29
M  V30 29 1 22 30
M  V30 30 1 24 31
M  V30 31 2 25 32
M  V30 32 1 25 33
M  V30 33 1 26 34
M  V30 34 1 27 35
M  V30 35 1 28 36
M  V30 36 1 28 37
M  V30 37 1 29 38
M  V30 38 1 29 39
M  V30 39 1 30 40
M  V30 40 2 31 41
M  V30 41 1 31 42
M  V30 42 1 33 43
M  V30 43 2 34 44
M  V30 44 1 34 45
M  V30 45 2 35 46
M  V30 46 1 35 47
M  V30 47 1 41 48
M  V30 48 2 42 49
M  V30 49 1 43 50
M  V30 50 1 43 51
M  V30 51 1 44 52
M  V30 52 2 45 53
M  V30 53 1 47 54
M  V30 54 1 47 55
M  V30 55 2 48 56
M  V30 56 2 50 57
M  V30 57 1 51 58
M  V30 58 2 52 59
M  V30 59 1 55 60
M  V30 60 1 58 61
M  V30 61 2 58 62
M  V30 62 1 60 63
M  V30 63 2 61 64
M  V30 64 1 61 65
M  V30 65 1 62 66
M  V30 66 1 63 67
M  V30 67 1 64 68
M  V30 68 2 65 69
M  V30 69 1 67 70
M  V30 70 2 68 71
M  V30 71 1 49 56
M  V30 72 1 50 54
M  V30 73 1 53 59
M  V30 74 1 64 66
M  V30 75 1 69 71
M  V30 76 1 3 72
M  V30 77 1 3 73
M  V30 78 1 4 74
M  V30 79 1 4 75
M  V30 80 1 5 76
M  V30 81 1 6 77
M  V30 82 1 7 78
M  V30 83 1 9 79
M  V30 84 1 13 80
M  V30 85 1 16 81
M  V30 86 1 18 82
M  V30 87 1 19 83
M  V30 88 1 21 84
M  V30 89 1 22 85
M  V30 90 1 23 86
M  V30 91 1 23 87
M  V30 92 1 24 88
M  V30 93 1 24 89
M  V30 94 1 26 90
M  V30 95 1 26 91
M  V30 96 1 27 92
M  V30 97 1 28 93
M  V30 98 1 29 94
M  V30 99 1 30 95
M  V30 100 1 30 96
M  V30 101 1 33 97
M  V30 102 1 36 98
M  V30 103 1 37 99
M  V30 104 1 37 100
M  V30 105 1 37 101
M  V30 106 1 38 102
M  V30 107 1 39 103
M  V30 108 1 39 104
M  V30 109 1 39 105
M  V30 110 1 40 106
M  V30 111 1 41 107
M  V30 112 1 42 108
M  V30 113 1 43 109
M  V30 114 1 44 110
M  V30 115 1 45 111
M  V30 116 1 47 112
M  V30 117 1 48 113
M  V30 118 1 49 114
M  V30 119 1 51 115
M  V30 120 1 51 116
M  V30 121 1 52 117
M  V30 122 1 53 118
M  V30 123 1 54 119
M  V30 124 1 55 120
M  V30 125 1 55 121
M  V30 126 1 56 122
M  V30 127 1 59 123
M  V30 128 1 60 124
M  V30 129 1 60 125
M  V30 130 1 62 126
M  V30 131 1 63 127
M  V30 132 1 63 128
M  V30 133 1 65 129
M  V30 134 1 66 130
M  V30 135 1 67 131
M  V30 136 1 67 132
M  V30 137 1 68 133
M  V30 138 1 69 134
M  V30 139 1 70 135
M  V30 140 1 70 136
M  V30 141 1 71 137
M  V30 END BOND
M  V30 END CTAB
M  END
>  <level_0>
5461

>  <index>
5461

>  <NO.>
5462

>  <Name>
octreotide

>  <SMILES>
CC(O)C(CO)NC(=O)C1CSSCC(NC(=O)C(N)Cc2ccccc2)C(=O)NC(Cc2ccccc2)C(=O)NC(Cc2c[nH]c3ccccc23)C(=O)NC(CCCCN)C(=O)NC(C(C)O)C(=O)N1

>  <logBB>


>  <Class>
-1

>  <MW>
1018.44

>  <nHBAcc>
14

>  <nHBDon>
13

>  <SLogP>
-0.81

>  <TopoPSA>
332.22

>  <MMFF94 Energy>
217

$$$$
CC1(C)C(C=C(Cl)Cl)C1C(=O)OCc1cccc(Oc2ccccc2)c1
Actelion Java MolfileCreator 2.0

  0  0  0  0  0  0              0 V3000
M  V30 BEGIN CTAB
M  V30 COUNTS 46 48 0 0 0
M  V30 BEGIN ATOM
M  V30 1 Cl -2.8362 1.2958 -1.0527 0
M  V30 2 C -1.7312 2.6234 -1.0934 0
M  V30 3 Cl -1.2772 3.237 -2.6421 0
M  V30 4 C -1.2593 3.149 0.0486 0
M  V30 5 C -0.3396 4.2873 0.197 0
M  V30 6 C 0.5769 4.4042 1.4089 0
M  V30 7 C 1.1582 4.1901 0.0165 0
M  V30 8 C 0.6725 3.2915 2.4281 0
M  V30 9 C 0.7392 5.7758 2.0213 0
M  V30 10 C 1.9681 2.9832 -0.29 0
M  V30 11 O 3.1892 3.0378 -0.3154 0
M  V30 12 O 1.2266 1.8864 -0.5629 0
M  V30 13 C 1.9874 0.7287 -0.9026 0
M  V30 14 C 1.0018 -0.3717 -1.1928 0
M  V30 15 C 0.5271 -1.1902 -0.1583 0
M  V30 16 C 0.4925 -0.5481 -2.4875 0
M  V30 17 C -0.413 -2.1872 -0.4232 0
M  V30 18 C -0.4636 -1.5321 -2.7456 0
M  V30 19 O -0.855 -2.926 0.6511 0
M  V30 20 C -0.9223 -2.3491 -1.713 0
M  V30 21 C -0.9615 -4.2875 0.481 0
M  V30 22 C 0.0681 -5.062 -0.0592 0
M  V30 23 C -2.1284 -4.8953 0.945 0
M  V30 24 C -0.0898 -6.4441 -0.1693 0
M  V30 25 C -2.2838 -6.2773 0.8338 0
M  V30 26 C -1.2662 -7.0502 0.2735 0
M  V30 27 H -1.6183 2.7076 0.9764 0
M  V30 28 H -0.7923 5.2151 -0.1519 0
M  V30 29 H 1.6178 5.0669 -0.4375 0
M  V30 30 H -0.1091 3.4084 3.1864 0
M  V30 31 H 1.6438 3.3271 2.9331 0
M  V30 32 H 0.5646 2.2935 1.9939 0
M  V30 33 H 0.6752 6.5719 1.2717 0
M  V30 34 H 1.7127 5.859 2.5156 0
M  V30 35 H -0.0433 5.9538 2.7662 0
M  V30 36 H 2.6399 0.4428 -0.0687 0
M  V30 37 H 2.608 0.923 -1.7858 0
M  V30 38 H 0.8835 -1.0523 0.8595 0
M  V30 39 H 0.8241 0.0954 -3.2999 0
M  V30 40 H -0.8635 -1.6511 -3.7492 0
M  V30 41 H -1.6841 -3.0958 -1.9182 0
M  V30 42 H 0.9934 -4.5989 -0.3898 0
M  V30 43 H -2.9164 -4.292 1.3872 0
M  V30 44 H 0.7066 -7.0487 -0.5949 0
M  V30 45 H -3.1957 -6.7513 1.1873 0
M  V30 46 H -1.3869 -8.1273 0.1888 0
M  V30 END ATOM
M  V30 BEGIN BOND
M  V30 1 1 1 2
M  V30 2 1 2 3
M  V30 3 2 2 4
M  V30 4 1 4 5
M  V30 5 1 5 6
M  V30 6 1 5 7
M  V30 7 1 6 8
M  V30 8 1 6 9
M  V30 9 1 7 10
M  V30 10 2 10 11
M  V30 11 1 10 12
M  V30 12 1 12 13
M  V30 13 1 13 14
M  V30 14 2 14 15
M  V30 15 1 14 16
M  V30 16 1 15 17
M  V30 17 2 16 18
M  V30 18 1 17 19
M  V30 19 2 17 20
M  V30 20 1 19 21
M  V30 21 2 21 22
M  V30 22 1 21 23
M  V30 23 1 22 24
M  V30 24 2 23 25
M  V30 25 2 24 26
M  V30 26 1 6 7
M  V30 27 1 18 20
M  V30 28 1 25 26
M  V30 29 1 4 27
M  V30 30 1 5 28
M  V30 31 1 7 29
M  V30 32 1 8 30
M  V30 33 1 8 31
M  V30 34 1 8 32
M  V30 35 1 9 33
M  V30 36 1 9 34
M  V30 37 1 9 35
M  V30 38 1 13 36
M  V30 39 1 13 37
M  V30 40 1 15 38
M  V30 41 1 16 39
M  V30 42 1 18 40
M  V30 43 1 20 41
M  V30 44 1 22 42
M  V30 45 1 23 43
M  V30 46 1 24 44
M  V30 47 1 25 45
M  V30 48 1 26 46
M  V30 END BOND
M  V30 END CTAB
M  END
>  <level_0>
5463

>  <index>
5463

>  <NO.>
5464

>  <Name>
permethrin

>  <SMILES>
CC1(C)C(C=C(Cl)Cl)C1C(=O)OCc1cccc(Oc2ccccc2)c1

>  <logBB>


>  <Class>
-1

>  <MW>
390.08

>  <nHBAcc>
3

>  <nHBDon>
0

>  <SLogP>
6.11

>  <TopoPSA>
35.53

>  <MMFF94 Energy>
64.835

$$$$
CC1CNc2c(cccc2S(=O)(=O)N[C@@H](CCCN=C(N)N)C(=O)N2CC[C@@H](C)C[C@@H]2C(=O)O)C1
Actelion Java MolfileCreator 2.0

  0  0  0  0  0  0              0 V3000
M  V30 BEGIN CTAB
M  V30 COUNTS 71 73 0 0 0
M  V30 BEGIN ATOM
M  V30 1 S -2.867 -0.8753 -0.2386 0
M  V30 2 O -3.1744 0.3035 -1.0233 0
M  V30 3 O -3.5826 -2.1172 -0.4208 0
M  V30 4 N -1.2286 -1.2142 -0.4765 0
M  V30 5 C -2.9816 -0.4387 1.4836 0
M  V30 6 C -0.3505 -0.0466 -0.7661 0 CFG=2
M  V30 7 C -2.1799 -1.0349 2.4754 0
M  V30 8 C -3.9076 0.5696 1.8048 0
M  V30 9 C -0.2627 0.0917 -2.3003 0
M  V30 10 C 1.0198 -0.254 -0.112 0
M  V30 11 N -1.2592 -2.0354 2.2039 0
M  V30 12 C -2.3851 -0.6262 3.8129 0
M  V30 13 C -4.0644 0.9848 3.1223 0
M  V30 14 O -0.4147 -0.9244 -2.9914 0
M  V30 15 N -0.0346 1.3348 -2.8735 0
M  V30 16 C 1.7319 -1.5546 -0.4969 0
M  V30 17 C -0.3466 -2.5346 3.2108 0
M  V30 18 C -3.3063 0.3886 4.1231 0
M  V30 19 C -1.5853 -1.2459 4.9367 0
M  V30 20 C 0.2267 2.5959 -2.1464 0 CFG=1
M  V30 21 C 0.0352 1.4244 -4.3334 0
M  V30 22 C 3.0899 -1.6635 0.1978 0
M  V30 23 C -1.052 -2.6317 4.5606 0
M  V30 24 C 1.7213 2.9578 -2.2111 0
M  V30 25 C -0.7105 3.699 -2.6638 0
M  V30 26 C -0.9114 2.4966 -4.8642 0
M  V30 27 N 3.6534 -2.9727 -0.1091 0
M  V30 28 C -0.1116 -3.1669 5.6362 0
M  V30 29 O 2.6546 2.1696 -2.2316 0
M  V30 30 O 1.9757 4.2793 -2.1504 0
M  V30 31 C -0.6486 3.8499 -4.1921 0 CFG=1
M  V30 32 C 4.8279 -3.2473 0.3212 0
M  V30 33 C -1.65 4.8974 -4.674 0
M  V30 34 N 5.3604 -4.4484 0.0479 0
M  V30 35 N 5.6624 -2.483 1.0477 0
M  V30 36 H -1.1327 -1.9607 -1.1788 0
M  V30 37 H -0.8011 0.8431 -0.3208 0
M  V30 38 H -4.517 1.0279 1.028 0
M  V30 39 H 1.6711 0.592 -0.3535 0
M  V30 40 H 0.8889 -0.2404 0.9778 0
M  V30 41 H -1.0239 -2.2182 1.2284 0
M  V30 42 H -4.7833 1.7616 3.3695 0
M  V30 43 H 1.1173 -2.4192 -0.2196 0
M  V30 44 H 1.8784 -1.6038 -1.5821 0
M  V30 45 H 0.021 -3.5186 2.8998 0
M  V30 46 H 0.5234 -1.8693 3.2719 0
M  V30 47 H -3.4409 0.708 5.1545 0
M  V30 48 H -2.2132 -1.3368 5.8318 0
M  V30 49 H -0.7571 -0.568 5.1796 0
M  V30 50 H 0.0252 2.4744 -1.0807 0
M  V30 51 H 1.0706 1.6601 -4.605 0
M  V30 52 H -0.2067 0.4683 -4.8075 0
M  V30 53 H 2.9586 -1.555 1.2811 0
M  V30 54 H 3.7446 -0.8603 -0.161 0
M  V30 55 H -1.9003 -3.3243 4.4681 0
M  V30 56 H -1.7387 3.4421 -2.3737 0
M  V30 57 H -0.4859 4.6587 -2.1837 0
M  V30 58 H -1.9478 2.1863 -4.678 0
M  V30 59 H -0.7918 2.5854 -5.9501 0
M  V30 60 H 0.2505 -4.1658 5.3719 0
M  V30 61 H -0.6267 -3.2403 6.5997 0
M  V30 62 H 0.7588 -2.5151 5.7663 0
M  V30 63 H 2.9548 4.3353 -2.1769 0
M  V30 64 H 0.3554 4.1906 -4.4752 0
M  V30 65 H -1.4451 5.8699 -4.2143 0
M  V30 66 H -1.5897 5.0205 -5.7603 0
M  V30 67 H -2.6775 4.6135 -4.422 0
M  V30 68 H 6.191 -4.8013 0.4894 0
M  V30 69 H 4.7897 -5.0841 -0.4935 0
M  V30 70 H 5.3978 -1.5457 1.3089 0
M  V30 71 H 6.6221 -2.7513 1.1909 0
M  V30 END ATOM
M  V30 BEGIN BOND
M  V30 1 2 1 2
M  V30 2 2 1 3
M  V30 3 1 1 4
M  V30 4 1 1 5
M  V30 5 1 4 6
M  V30 6 2 5 7
M  V30 7 1 5 8
M  V30 8 1 6 9
M  V30 9 1 6 10
M  V30 10 1 7 11
M  V30 11 1 7 12
M  V30 12 2 8 13
M  V30 13 2 9 14
M  V30 14 1 9 15
M  V30 15 1 10 16
M  V30 16 1 11 17
M  V30 17 2 12 18
M  V30 18 1 12 19
M  V30 19 1 15 20
M  V30 20 1 15 21
M  V30 21 1 16 22
M  V30 22 1 17 23
M  V30 23 1 20 24
M  V30 24 1 20 25
M  V30 25 1 21 26
M  V30 26 1 22 27
M  V30 27 1 23 28
M  V30 28 2 24 29
M  V30 29 1 24 30
M  V30 30 1 25 31
M  V30 31 2 27 32
M  V30 32 1 31 33
M  V30 33 1 32 34
M  V30 34 1 32 35
M  V30 35 1 13 18
M  V30 36 1 19 23
M  V30 37 1 26 31
M  V30 38 1 4 36
M  V30 39 1 6 37
M  V30 40 1 8 38
M  V30 41 1 10 39
M  V30 42 1 10 40
M  V30 43 1 11 41
M  V30 44 1 13 42
M  V30 45 1 16 43
M  V30 46 1 16 44
M  V30 47 1 17 45
M  V30 48 1 17 46
M  V30 49 1 18 47
M  V30 50 1 19 48
M  V30 51 1 19 49
M  V30 52 1 20 50
M  V30 53 1 21 51
M  V30 54 1 21 52
M  V30 55 1 22 53
M  V30 56 1 22 54
M  V30 57 1 23 55
M  V30 58 1 25 56
M  V30 59 1 25 57
M  V30 60 1 26 58
M  V30 61 1 26 59
M  V30 62 1 28 60
M  V30 63 1 28 61
M  V30 64 1 28 62
M  V30 65 1 30 63
M  V30 66 1 31 64
M  V30 67 1 33 65
M  V30 68 1 33 66
M  V30 69 1 33 67
M  V30 70 1 34 68
M  V30 71 1 34 69
M  V30 72 1 35 70
M  V30 73 1 35 71
M  V30 END BOND
M  V30 BEGIN COLLECTION
M  V30 MDLV30/STEABS ATOMS=(3 6 20 31)
M  V30 END COLLECTION
M  V30 END CTAB
M  END
>  <level_0>
5465

>  <index>
5465

>  <NO.>
5466

>  <Name>
argatroban

>  <SMILES>
CC1CNc2c(cccc2S(=O)(=O)N[C@@H](CCCN=C(N)N)C(=O)N2CC[C@@H](C)C[C@@H]2C(=O)O)C1

>  <logBB>


>  <Class>
-1

>  <MW>
508.25

>  <nHBAcc>
6

>  <nHBDon>
5

>  <SLogP>
0.7

>  <TopoPSA>
180.21

>  <MMFF94 Energy>
-126.68

$$$$
CCNC(=O)[C@@H]1CCCN1C(=O)[C@H](CCCN=C(N)N)NC(=O)[C@H](CC(C)C)NC(=O)[C@@H](CC(C)C)NC(=O)[C@H](Cc1ccc(O)cc1)NC(=O)[C@H](CO)NC(=O)[C@H](Cc1c[nH]c2ccccc12)NC(=O)[C@H](Cc1cnc[nH]1)NC(=O)[C@@H]1CCC(=O)N1
Actelion Java MolfileCreator 2.0

  0  0  0  0  0  0              0 V3000
M  V30 BEGIN CTAB
M  V30 COUNTS 171 176 0 0 0
M  V30 BEGIN ATOM
M  V30 1 O -3.0786 0.6309 -3.2367 0
M  V30 2 C -2.0663 0.0385 -3.571 0
M  V30 3 N -0.7906 0.3196 -3.1316 0
M  V30 4 C -1.9785 -1.0904 -4.5626 0
M  V30 5 C 0.2091 -0.5506 -3.7091 0 CFG=1
M  V30 6 C -0.6179 -1.7103 -4.2508 0
M  V30 7 C 1.0554 0.0898 -4.8277 0
M  V30 8 O 2.0512 -0.4621 -5.289 0
M  V30 9 N 0.569 1.2732 -5.3292 0
M  V30 10 C 1.2792 2.0544 -6.3535 0 CFG=2
M  V30 11 C 1.2607 3.5532 -5.9806 0
M  V30 12 C 0.7654 1.7945 -7.7741 0
M  V30 13 O 1.4068 4.4669 -6.7849 0
M  V30 14 N 1.1877 3.7528 -4.6245 0
M  V30 15 C -0.7165 1.9068 -7.9085 0
M  V30 16 C 1.1623 5.0582 -3.9561 0 CFG=2
M  V30 17 N -1.4014 3.097 -7.8618 0
M  V30 18 C -1.6875 0.951 -8.114 0
M  V30 19 C 1.3421 4.8438 -2.4323 0
M  V30 20 C -0.1037 5.8787 -4.2682 0
M  V30 21 C -2.7269 2.8085 -8.0241 0
M  V30 22 N -2.9307 1.5189 -8.165 0
M  V30 23 O 1.0463 5.6745 -1.5793 0
M  V30 24 N 1.9601 3.6545 -2.1178 0
M  V30 25 C -1.4012 5.1096 -4.2717 0
M  V30 26 C 2.0532 3.0908 -0.772 0 CFG=2
M  V30 27 C -2.5643 5.4155 -5.0545 0
M  V30 28 C -1.7249 3.996 -3.5242 0
M  V30 29 C 2.7237 1.7159 -0.9455 0
M  V30 30 C 0.6865 2.9201 -0.0946 0
M  V30 31 C -3.5276 4.442 -4.7824 0
M  V30 32 C -2.8866 6.437 -5.9723 0
M  V30 33 N -2.9725 3.5645 -3.8841 0
M  V30 34 O 2.8904 1.2112 -2.0594 0
M  V30 35 N 3.1306 1.092 0.2034 0
M  V30 36 O -0.2017 2.1447 -0.908 0
M  V30 37 C -4.7955 4.441 -5.3751 0
M  V30 38 C -4.1525 6.4548 -6.57 0
M  V30 39 C 3.7634 -0.2233 0.1875 0 CFG=2
M  V30 40 C -5.092 5.4709 -6.2723 0
M  V30 41 C 3.6333 -0.8496 1.5874 0
M  V30 42 C 5.2263 -0.1963 -0.2947 0
M  V30 43 O 3.3527 -0.1837 2.5833 0
M  V30 44 N 3.8653 -2.2057 1.6341 0
M  V30 45 C 6.0991 0.8416 0.377 0
M  V30 46 C 3.7056 -2.973 2.8631 0 CFG=1
M  V30 47 C 6.3486 2.0695 -0.2561 0
M  V30 48 C 6.6604 0.6031 1.6384 0
M  V30 49 C 2.3021 -3.6161 2.8469 0
M  V30 50 C 4.7683 -4.0745 2.9803 0
M  V30 51 C 7.14 3.041 0.3604 0
M  V30 52 C 7.45 1.5743 2.2555 0
M  V30 53 O 1.6831 -3.8474 1.8083 0
M  V30 54 N 1.8239 -3.9641 4.0908 0
M  V30 55 C 6.2214 -3.5619 3.0342 0
M  V30 56 C 7.6838 2.7838 1.6137 0
M  V30 57 C 0.501 -4.5556 4.2656 0 CFG=2
M  V30 58 C 6.4844 -2.6892 4.2623 0
M  V30 59 C 7.1882 -4.7489 3.0294 0
M  V30 60 O 8.4618 3.7024 2.2536 0
M  V30 61 C -0.4594 -3.361 4.4167 0
M  V30 62 C 0.4376 -5.4551 5.5082 0
M  V30 63 O -0.6342 -2.7769 5.4846 0
M  V30 64 N -1.0028 -2.9218 3.2294 0
M  V30 65 C 0.9484 -6.8932 5.2803 0
M  V30 66 C -1.8808 -1.7593 3.1863 0 CFG=2
M  V30 67 C 2.4222 -6.9553 4.8809 0
M  V30 68 C 0.7247 -7.724 6.5475 0
M  V30 69 C -3.2712 -2.1931 3.715 0
M  V30 70 C -2.0378 -1.2483 1.7447 0
M  V30 71 O -3.8233 -3.2053 3.2635 0
M  V30 72 N -3.9164 -1.3881 4.6293 0
M  V30 73 C -2.4654 0.2199 1.7142 0
M  V30 74 C -5.2832 -1.6772 5.1079 0 CFG=2
M  V30 75 C -3.2788 -0.3863 5.4712 0
M  V30 76 C -2.8527 0.6774 0.3074 0
M  V30 77 C -6.4098 -1.4367 4.0683 0
M  V30 78 C -5.4647 -0.7508 6.3203 0
M  V30 79 C -4.0461 -0.4626 6.7794 0
M  V30 80 N -2.7752 2.1392 0.2917 0
M  V30 81 O -7.4371 -0.8119 4.3298 0
M  V30 82 N -6.2446 -2.0955 2.8707 0
M  V30 83 C -3.5675 2.7962 -0.4727 0
M  V30 84 C -7.206 -2.0282 1.7954 0
M  V30 85 N -3.5571 4.138 -0.4345 0
M  V30 86 N -4.4286 2.3426 -1.3968 0
M  V30 87 C -8.2882 -3.0811 1.9475 0
M  V30 88 H -0.5949 1.0245 -2.4169 0
M  V30 89 H -2.0122 -0.6785 -5.5744 0
M  V30 90 H -2.793 -1.8042 -4.4188 0
M  V30 91 H 0.8905 -0.8705 -2.9142 0
M  V30 92 H -0.1811 -2.2027 -5.1249 0
M  V30 93 H -0.7422 -2.468 -3.4665 0
M  V30 94 H -0.3499 1.5892 -5.0303 0
M  V30 95 H 2.339 1.7692 -6.321 0
M  V30 96 H 1.0584 0.7783 -8.0694 0
M  V30 97 H 1.2466 2.4737 -8.4884 0
M  V30 98 H 0.9522 2.9387 -4.0657 0
M  V30 99 H 2.0428 5.6168 -4.2971 0
M  V30 100 H -1.0099 4.0224 -7.7266 0
M  V30 101 H -1.5546 -0.1176 -8.2244 0
M  V30 102 H 0.0242 6.3167 -5.2668 0
M  V30 103 H -0.1989 6.7228 -3.5744 0
M  V30 104 H -3.4874 3.5769 -8.0293 0
M  V30 105 H 2.4069 3.1164 -2.8556 0
M  V30 106 H 2.7037 3.7379 -0.1741 0
M  V30 107 H -1.1765 3.4496 -2.7731 0
M  V30 108 H 0.7823 2.4138 0.8712 0
M  V30 109 H 0.2154 3.8926 0.0793 0
M  V30 110 H -2.1662 7.2151 -6.2071 0
M  V30 111 H -3.4247 2.7356 -3.5078 0
M  V30 112 H 3.0264 1.5286 1.1155 0
M  V30 113 H -1.0819 2.2419 -0.4701 0
M  V30 114 H -5.5229 3.6657 -5.1563 0
M  V30 115 H -4.4041 7.2474 -7.2707 0
M  V30 116 H 3.1849 -0.8561 -0.4988 0
M  V30 117 H -6.0697 5.4986 -6.7487 0
M  V30 118 H 5.2418 -0.0131 -1.3772 0
M  V30 119 H 5.6928 -1.1812 -0.1641 0
M  V30 120 H 3.8802 -2.7311 0.7672 0
M  V30 121 H 3.751 -2.2989 3.7251 0
M  V30 122 H 5.9267 2.275 -1.2382 0
M  V30 123 H 6.4887 -0.3369 2.1552 0
M  V30 124 H 4.6657 -4.7583 2.1263 0
M  V30 125 H 4.5678 -4.6792 3.8746 0
M  V30 126 H 7.3197 3.982 -0.1494 0
M  V30 127 H 7.8809 1.3876 3.2351 0
M  V30 128 H 2.2865 -3.6041 4.9179 0
M  V30 129 H 6.4265 -2.9658 2.1368 0
M  V30 130 H 0.2237 -5.1251 3.371 0
M  V30 131 H 5.8901 -1.7712 4.2362 0
M  V30 132 H 6.2451 -3.2239 5.1877 0
M  V30 133 H 7.5375 -2.3908 4.3073 0
M  V30 134 H 7.0437 -5.3648 2.1355 0
M  V30 135 H 7.0407 -5.386 3.9082 0
M  V30 136 H 8.2277 -4.4042 3.0312 0
M  V30 137 H 8.5458 4.4862 1.6865 0
M  V30 138 H 0.9878 -4.9939 6.3394 0
M  V30 139 H -0.6087 -5.5228 5.8363 0
M  V30 140 H -0.7578 -3.3989 2.3673 0
M  V30 141 H 0.3578 -7.3491 4.4754 0
M  V30 142 H -1.42 -0.9842 3.8002 0
M  V30 143 H 2.5807 -6.5329 3.8847 0
M  V30 144 H 3.0516 -6.4114 5.5932 0
M  V30 145 H 2.7726 -7.9926 4.8451 0
M  V30 146 H -0.334 -7.7309 6.8276 0
M  V30 147 H 1.2966 -7.3231 7.3913 0
M  V30 148 H 1.0331 -8.7632 6.3919 0
M  V30 149 H -1.0832 -1.3393 1.21 0
M  V30 150 H -2.7628 -1.8613 1.1946 0
M  V30 151 H -3.3174 0.3928 2.382 0
M  V30 152 H -1.6396 0.8332 2.0978 0
M  V30 153 H -5.3192 -2.7305 5.412 0
M  V30 154 H -2.2172 -0.5779 5.6315 0
M  V30 155 H -3.4075 0.5876 4.9876 0
M  V30 156 H -3.855 0.2974 0.0789 0
M  V30 157 H -2.1553 0.267 -0.4292 0
M  V30 158 H -5.9472 0.1941 6.042 0
M  V30 159 H -6.0716 -1.2141 7.1045 0
M  V30 160 H -3.6764 -1.2981 7.386 0
M  V30 161 H -3.9655 0.4538 7.3703 0
M  V30 162 H -5.4338 -2.708 2.7735 0
M  V30 163 H -7.6529 -1.0287 1.7707 0
M  V30 164 H -6.6582 -2.1824 0.8606 0
M  V30 165 H -3.9057 4.6951 -1.2003 0
M  V30 166 H -2.93 4.5889 0.2172 0
M  V30 167 H -4.3754 1.3848 -1.7304 0
M  V30 168 H -5.202 2.9072 -1.7123 0
M  V30 169 H -8.9919 -3.0287 1.1113 0
M  V30 170 H -7.8546 -4.0864 1.9698 0
M  V30 171 H -8.8494 -2.9402 2.8772 0
M  V30 END ATOM
M  V30 BEGIN BOND
M  V30 1 2 1 2
M  V30 2 1 2 3
M  V30 3 1 2 4
M  V30 4 1 3 5
M  V30 5 1 4 6
M  V30 6 1 5 7
M  V30 7 2 7 8
M  V30 8 1 7 9
M  V30 9 1 9 10
M  V30 10 1 10 11
M  V30 11 1 10 12
M  V30 12 2 11 13
M  V30 13 1 11 14
M  V30 14 1 12 15
M  V30 15 1 14 16
M  V30 16 1 15 17
M  V30 17 2 15 18
M  V30 18 1 16 19
M  V30 19 1 16 20
M  V30 20 1 17 21
M  V30 21 1 18 22
M  V30 22 2 19 23
M  V30 23 1 19 24
M  V30 24 1 20 25
M  V30 25 1 24 26
M  V30 26 1 25 27
M  V30 27 2 25 28
M  V30 28 1 26 29
M  V30 29 1 26 30
M  V30 30 2 27 31
M  V30 31 1 27 32
M  V30 32 1 28 33
M  V30 33 2 29 34
M  V30 34 1 29 35
M  V30 35 1 30 36
M  V30 36 1 31 37
M  V30 37 2 32 38
M  V30 38 1 35 39
M  V30 39 2 37 40
M  V30 40 1 39 41
M  V30 41 1 39 42
M  V30 42 2 41 43
M  V30 43 1 41 44
M  V30 44 1 42 45
M  V30 45 1 44 46
M  V30 46 2 45 47
M  V30 47 1 45 48
M  V30 48 1 46 49
M  V30 49 1 46 50
M  V30 50 1 47 51
M  V30 51 2 48 52
M  V30 52 2 49 53
M  V30 53 1 49 54
M  V30 54 1 50 55
M  V30 55 2 51 56
M  V30 56 1 54 57
M  V30 57 1 55 58
M  V30 58 1 55 59
M  V30 59 1 56 60
M  V30 60 1 57 61
M  V30 61 1 57 62
M  V30 62 2 61 63
M  V30 63 1 61 64
M  V30 64 1 62 65
M  V30 65 1 64 66
M  V30 66 1 65 67
M  V30 67 1 65 68
M  V30 68 1 66 69
M  V30 69 1 66 70
M  V30 70 2 69 71
M  V30 71 1 69 72
M  V30 72 1 70 73
M  V30 73 1 72 74
M  V30 74 1 72 75
M  V30 75 1 73 76
M  V30 76 1 74 77
M  V30 77 1 74 78
M  V30 78 1 75 79
M  V30 79 1 76 80
M  V30 80 2 77 81
M  V30 81 1 77 82
M  V30 82 2 80 83
M  V30 83 1 82 84
M  V30 84 1 83 85
M  V30 85 1 83 86
M  V30 86 1 84 87
M  V30 87 1 5 6
M  V30 88 2 21 22
M  V30 89 1 31 33
M  V30 90 1 38 40
M  V30 91 1 52 56
M  V30 92 1 78 79
M  V30 93 1 3 88
M  V30 94 1 4 89
M  V30 95 1 4 90
M  V30 96 1 5 91
M  V30 97 1 6 92
M  V30 98 1 6 93
M  V30 99 1 9 94
M  V30 100 1 10 95
M  V30 101 1 12 96
M  V30 102 1 12 97
M  V30 103 1 14 98
M  V30 104 1 16 99
M  V30 105 1 17 100
M  V30 106 1 18 101
M  V30 107 1 20 102
M  V30 108 1 20 103
M  V30 109 1 21 104
M  V30 110 1 24 105
M  V30 111 1 26 106
M  V30 112 1 28 107
M  V30 113 1 30 108
M  V30 114 1 30 109
M  V30 115 1 32 110
M  V30 116 1 33 111
M  V30 117 1 35 112
M  V30 118 1 36 113
M  V30 119 1 37 114
M  V30 120 1 38 115
M  V30 121 1 39 116
M  V30 122 1 40 117
M  V30 123 1 42 118
M  V30 124 1 42 119
M  V30 125 1 44 120
M  V30 126 1 46 121
M  V30 127 1 47 122
M  V30 128 1 48 123
M  V30 129 1 50 124
M  V30 130 1 50 125
M  V30 131 1 51 126
M  V30 132 1 52 127
M  V30 133 1 54 128
M  V30 134 1 55 129
M  V30 135 1 57 130
M  V30 136 1 58 131
M  V30 137 1 58 132
M  V30 138 1 58 133
M  V30 139 1 59 134
M  V30 140 1 59 135
M  V30 141 1 59 136
M  V30 142 1 60 137
M  V30 143 1 62 138
M  V30 144 1 62 139
M  V30 145 1 64 140
M  V30 146 1 65 141
M  V30 147 1 66 142
M  V30 148 1 67 143
M  V30 149 1 67 144
M  V30 150 1 67 145
M  V30 151 1 68 146
M  V30 152 1 68 147
M  V30 153 1 68 148
M  V30 154 1 70 149
M  V30 155 1 70 150
M  V30 156 1 73 151
M  V30 157 1 73 152
M  V30 158 1 74 153
M  V30 159 1 75 154
M  V30 160 1 75 155
M  V30 161 1 76 156
M  V30 162 1 76 157
M  V30 163 1 78 158
M  V30 164 1 78 159
M  V30 165 1 79 160
M  V30 166 1 79 161
M  V30 167 1 82 162
M  V30 168 1 84 163
M  V30 169 1 84 164
M  V30 170 1 85 165
M  V30 171 1 85 166
M  V30 172 1 86 167
M  V30 173 1 86 168
M  V30 174 1 87 169
M  V30 175 1 87 170
M  V30 176 1 87 171
M  V30 END BOND
M  V30 BEGIN COLLECTION
M  V30 MDLV30/STEABS ATOMS=(9 5 10 16 26 39 46 57 66 74)
M  V30 END COLLECTION
M  V30 END CTAB
M  END
>  <level_0>
5478

>  <index>
5478

>  <NO.>
5479

>  <Name>
leuprolide

>  <SMILES>
CCNC(=O)[C@@H]1CCCN1C(=O)[C@H](CCCN=C(N)N)NC(=O)[C@H](CC(C)C)NC(=O)[C@@H](CC(C)C)NC(=O)[C@H](Cc1ccc(O)cc1)NC(=O)[C@H](CO)NC(=O)[C@H](Cc1c[nH]c2ccccc12)NC(=O)[C@H](Cc1cnc[nH]1)NC(=O)[C@@H]1CCC(=O)N1

>  <logBB>


>  <Class>
-1

>  <MW>
1208.65

>  <nHBAcc>
14

>  <nHBDon>
15

>  <SLogP>
-1.44

>  <TopoPSA>
431.54

>  <MMFF94 Energy>
-10.884

$$$$
CC[C@H](C)[C@@H]1NC(=O)[C@H](Cc2ccc(O)cc2)NC(=O)[C@@H](N)CSSC[C@@H](C(=O)N2CCC[C@H]2C(=O)N[C@@H](CC(C)C)C(=O)NCC(N)=O)NC(=O)[C@H](CC(N)=O)NC(=O)[C@H](CCC(N)=O)NC1=O
Actelion Java MolfileCreator 2.0

  0  0  0  0  0  0              0 V3000
M  V30 BEGIN CTAB
M  V30 COUNTS 135 137 0 0 0
M  V30 BEGIN ATOM
M  V30 1 S -0.9537 1.6695 -2.3857 0
M  V30 2 S -1.8029 -0.1011 -1.7795 0
M  V30 3 C 0.1936 2.0538 -1.0061 0
M  V30 4 C -0.4814 -1.3 -2.1316 0
M  V30 5 C 0.682 3.5084 -1.0543 0 CFG=2
M  V30 6 C -0.6664 -2.6187 -1.3615 0 CFG=2
M  V30 7 N 1.793 3.7228 -0.105 0
M  V30 8 C -0.4728 4.4972 -0.7908 0
M  V30 9 N -0.6143 -2.4395 0.09 0
M  V30 10 C 0.5406 -3.4833 -1.8043 0
M  V30 11 O -0.9672 5.1456 -1.7194 0
M  V30 12 N -1.0435 4.6617 0.4344 0
M  V30 13 C -0.7135 -3.5231 0.9347 0
M  V30 14 O 1.6891 -3.1825 -1.4466 0
M  V30 15 N 0.3185 -4.5189 -2.6896 0
M  V30 16 C -0.6333 4.1883 1.7671 0 CFG=2
M  V30 17 O -0.9168 -4.6657 0.5258 0
M  V30 18 C -0.6209 -3.1886 2.4313 0 CFG=1
M  V30 19 C 1.4204 -5.3009 -3.2865 0 CFG=2
M  V30 20 C -0.9604 -5.1734 -2.9231 0
M  V30 21 C -1.784 3.3816 2.4086 0
M  V30 22 C -0.2465 5.3603 2.6891 0
M  V30 23 N -1.984 -3.2474 2.9617 0
M  V30 24 C 0.2765 -4.2253 3.1102 0
M  V30 25 C 2.2254 -4.4617 -4.3099 0
M  V30 26 C 0.7261 -6.4955 -3.9524 0
M  V30 27 C -0.5885 -6.6199 -3.1997 0
M  V30 28 O -1.9422 3.2699 3.6229 0
M  V30 29 N -2.5268 2.6391 1.5152 0
M  V30 30 C 1.0081 6.0874 2.2621 0
M  V30 31 C -2.6702 -2.3367 3.7065 0
M  V30 32 C 0.9501 -3.6674 4.338 0
M  V30 33 O 2.2479 -4.6826 -5.5163 0
M  V30 34 N 2.9291 -3.4299 -3.7331 0
M  V30 35 C -3.4955 1.6504 1.9694 0 CFG=2
M  V30 36 C 2.2609 5.6701 2.7355 0
M  V30 37 C 0.9433 7.1667 1.3698 0
M  V30 38 O -3.8684 -2.5596 3.9099 0
M  V30 39 C -1.9811 -1.0536 4.23 0 CFG=1
M  V30 40 O 1.0123 -2.4766 4.6149 0
M  V30 41 N 1.5366 -4.6027 5.1375 0
M  V30 42 C 3.6635 -2.4203 -4.4927 0 CFG=2
M  V30 43 C -2.658 0.4051 2.3527 0
M  V30 44 C -4.5483 1.3203 0.8856 0 CFG=2
M  V30 45 C 3.4277 6.3186 2.3249 0
M  V30 46 C 2.1094 7.813 0.9575 0
M  V30 47 N -2.6992 0.098 3.6971 0
M  V30 48 C -1.909 -1.04 5.7641 0
M  V30 49 C 4.5483 -1.6036 -3.5266 0
M  V30 50 C 2.6767 -1.48 -5.2137 0
M  V30 51 O -1.9739 -0.2296 1.548 0
M  V30 52 C -5.3136 2.5957 0.4631 0
M  V30 53 C -5.5154 0.239 1.3883 0
M  V30 54 C 3.3407 7.3853 1.4373 0
M  V30 55 C -3.2569 -1.0949 6.4876 0
M  V30 56 O 5.6433 -1.1483 -3.8589 0
M  V30 57 N 3.9521 -1.2511 -2.3308 0
M  V30 58 C 3.3229 -0.3985 -6.1026 0
M  V30 59 C -6.2833 2.3772 -0.6906 0
M  V30 60 O 4.4547 8.0423 1.0058 0
M  V30 61 C -3.1061 -0.9196 7.9835 0
M  V30 62 C 4.6238 -0.4015 -1.3643 0
M  V30 63 C 4.1587 -0.9982 -7.2332 0
M  V30 64 C 2.2334 0.5051 -6.6872 0
M  V30 65 O -2.0414 -0.7757 8.5698 0
M  V30 66 N -4.287 -0.9376 8.6665 0
M  V30 67 C 4.4782 1.0711 -1.7527 0
M  V30 68 O 3.7367 1.8579 -1.1705 0
M  V30 69 N 5.2186 1.4612 -2.8305 0
M  V30 70 H 1.0452 1.372 -1.0981 0
M  V30 71 H -0.3027 1.841 -0.0558 0
M  V30 72 H -0.4685 -1.4905 -3.2108 0
M  V30 73 H 0.4812 -0.8516 -1.8606 0
M  V30 74 H 1.0772 3.7327 -2.0535 0
M  V30 75 H -1.6253 -3.0756 -1.6118 0
M  V30 76 H 2.1237 4.6869 -0.1923 0
M  V30 77 H 2.5897 3.1399 -0.4053 0
M  V30 78 H -0.8364 -1.5194 0.4815 0
M  V30 79 H -1.8217 5.3098 0.407 0
M  V30 80 H 0.1974 3.4866 1.6808 0
M  V30 81 H -0.2068 -2.1836 2.5171 0
M  V30 82 H 2.089 -5.6278 -2.4812 0
M  V30 83 H -1.6349 -5.0965 -2.0684 0
M  V30 84 H -1.4205 -4.702 -3.7979 0
M  V30 85 H -0.1006 5.0038 3.7174 0
M  V30 86 H -1.0745 6.0801 2.75 0
M  V30 87 H -2.5636 -4.0202 2.6497 0
M  V30 88 H 1.0826 -4.5398 2.4348 0
M  V30 89 H -0.2908 -5.1233 3.3843 0
M  V30 90 H 0.5135 -6.3136 -5.0121 0
M  V30 91 H 1.3293 -7.4064 -3.8896 0
M  V30 92 H -0.4246 -7.1539 -2.2558 0
M  V30 93 H -1.3571 -7.1522 -3.7665 0
M  V30 94 H -2.3039 2.6968 0.5278 0
M  V30 95 H 2.9075 -3.3789 -2.7151 0
M  V30 96 H -4.0003 2.0451 2.86 0
M  V30 97 H 2.3358 4.8276 3.4199 0
M  V30 98 H -0.0135 7.5073 0.9809 0
M  V30 99 H -0.962 -0.9699 3.856 0
M  V30 100 H 2.0063 -4.2814 5.9752 0
M  V30 101 H 1.5139 -5.5949 4.9469 0
M  V30 102 H 4.307 -2.9523 -5.2001 0
M  V30 103 H -4.0369 0.9237 0.0017 0
M  V30 104 H 4.3851 5.9739 2.7015 0
M  V30 105 H 2.0558 8.6463 0.2627 0
M  V30 106 H -3.061 0.7955 4.3373 0
M  V30 107 H -1.3001 -1.8888 6.1005 0
M  V30 108 H -1.3743 -0.133 6.0761 0
M  V30 109 H 2.0442 -0.9843 -4.4637 0
M  V30 110 H 1.9904 -2.0741 -5.8306 0
M  V30 111 H -5.8619 3.0048 1.3206 0
M  V30 112 H -4.6013 3.3673 0.1484 0
M  V30 113 H -6.2252 -0.0553 0.6097 0
M  V30 114 H -4.9823 -0.6707 1.6815 0
M  V30 115 H -6.0854 0.5915 2.2546 0
M  V30 116 H -3.9286 -0.3099 6.1237 0
M  V30 117 H -3.7426 -2.0626 6.3263 0
M  V30 118 H 3.0143 -1.5694 -2.1094 0
M  V30 119 H 3.975 0.2342 -5.4897 0
M  V30 120 H -6.693 3.3373 -1.0212 0
M  V30 121 H -5.7804 1.9123 -1.5442 0
M  V30 122 H -7.127 1.747 -0.3958 0
M  V30 123 H 5.2295 7.6519 1.4419 0
M  V30 124 H 5.6851 -0.6639 -1.3092 0
M  V30 125 H 4.1616 -0.5644 -0.3864 0
M  V30 126 H 5.0235 -1.5433 -6.8439 0
M  V30 127 H 3.5653 -1.6883 -7.8423 0
M  V30 128 H 4.5424 -0.2113 -7.8916 0
M  V30 129 H 1.648 0.9747 -5.8893 0
M  V30 130 H 1.5459 -0.061 -7.3247 0
M  V30 131 H 2.6741 1.3055 -7.291 0
M  V30 132 H -4.2533 -0.8264 9.6713 0
M  V30 133 H -5.1817 -1.0735 8.2174 0
M  V30 134 H 5.1688 2.4148 -3.1587 0
M  V30 135 H 5.7465 0.7771 -3.3722 0
M  V30 END ATOM
M  V30 BEGIN BOND
M  V30 1 1 1 2
M  V30 2 1 1 3
M  V30 3 1 2 4
M  V30 4 1 3 5
M  V30 5 1 4 6
M  V30 6 1 5 7
M  V30 7 1 5 8
M  V30 8 1 6 9
M  V30 9 1 6 10
M  V30 10 2 8 11
M  V30 11 1 8 12
M  V30 12 1 9 13
M  V30 13 2 10 14
M  V30 14 1 10 15
M  V30 15 1 12 16
M  V30 16 2 13 17
M  V30 17 1 13 18
M  V30 18 1 15 19
M  V30 19 1 15 20
M  V30 20 1 16 21
M  V30 21 1 16 22
M  V30 22 1 18 23
M  V30 23 1 18 24
M  V30 24 1 19 25
M  V30 25 1 19 26
M  V30 26 1 20 27
M  V30 27 2 21 28
M  V30 28 1 21 29
M  V30 29 1 22 30
M  V30 30 1 23 31
M  V30 31 1 24 32
M  V30 32 2 25 33
M  V30 33 1 25 34
M  V30 34 1 29 35
M  V30 35 2 30 36
M  V30 36 1 30 37
M  V30 37 2 31 38
M  V30 38 1 31 39
M  V30 39 2 32 40
M  V30 40 1 32 41
M  V30 41 1 34 42
M  V30 42 1 35 43
M  V30 43 1 35 44
M  V30 44 1 36 45
M  V30 45 2 37 46
M  V30 46 1 39 47
M  V30 47 1 39 48
M  V30 48 1 42 49
M  V30 49 1 42 50
M  V30 50 2 43 51
M  V30 51 1 44 52
M  V30 52 1 44 53
M  V30 53 2 45 54
M  V30 54 1 48 55
M  V30 55 2 49 56
M  V30 56 1 49 57
M  V30 57 1 50 58
M  V30 58 1 52 59
M  V30 59 1 54 60
M  V30 60 1 55 61
M  V30 61 1 57 62
M  V30 62 1 58 63
M  V30 63 1 58 64
M  V30 64 2 61 65
M  V30 65 1 61 66
M  V30 66 1 62 67
M  V30 67 2 67 68
M  V30 68 1 67 69
M  V30 69 1 26 27
M  V30 70 1 43 47
M  V30 71 1 46 54
M  V30 72 1 3 70
M  V30 73 1 3 71
M  V30 74 1 4 72
M  V30 75 1 4 73
M  V30 76 1 5 74
M  V30 77 1 6 75
M  V30 78 1 7 76
M  V30 79 1 7 77
M  V30 80 1 9 78
M  V30 81 1 12 79
M  V30 82 1 16 80
M  V30 83 1 18 81
M  V30 84 1 19 82
M  V30 85 1 20 83
M  V30 86 1 20 84
M  V30 87 1 22 85
M  V30 88 1 22 86
M  V30 89 1 23 87
M  V30 90 1 24 88
M  V30 91 1 24 89
M  V30 92 1 26 90
M  V30 93 1 26 91
M  V30 94 1 27 92
M  V30 95 1 27 93
M  V30 96 1 29 94
M  V30 97 1 34 95
M  V30 98 1 35 96
M  V30 99 1 36 97
M  V30 100 1 37 98
M  V30 101 1 39 99
M  V30 102 1 41 100
M  V30 103 1 41 101
M  V30 104 1 42 102
M  V30 105 1 44 103
M  V30 106 1 45 104
M  V30 107 1 46 105
M  V30 108 1 47 106
M  V30 109 1 48 107
M  V30 110 1 48 108
M  V30 111 1 50 109
M  V30 112 1 50 110
M  V30 113 1 52 111
M  V30 114 1 52 112
M  V30 115 1 53 113
M  V30 116 1 53 114
M  V30 117 1 53 115
M  V30 118 1 55 116
M  V30 119 1 55 117
M  V30 120 1 57 118
M  V30 121 1 58 119
M  V30 122 1 59 120
M  V30 123 1 59 121
M  V30 124 1 59 122
M  V30 125 1 60 123
M  V30 126 1 62 124
M  V30 127 1 62 125
M  V30 128 1 63 126
M  V30 129 1 63 127
M  V30 130 1 63 128
M  V30 131 1 64 129
M  V30 132 1 64 130
M  V30 133 1 64 131
M  V30 134 1 66 132
M  V30 135 1 66 133
M  V30 136 1 69 134
M  V30 137 1 69 135
M  V30 END BOND
M  V30 BEGIN COLLECTION
M  V30 MDLV30/STEABS ATOMS=(9 5 6 16 18 19 35 39 42 44)
M  V30 END COLLECTION
M  V30 END CTAB
M  END
>  <level_0>
5492

>  <index>
5492

>  <NO.>
5493

>  <Name>
oxytocin

>  <SMILES>
CC[C@H](C)[C@@H]1NC(=O)[C@H](Cc2ccc(O)cc2)NC(=O)[C@@H](N)CSSC[C@@H](C(=O)N2CCC[C@H]2C(=O)N[C@@H](CC(C)C)C(=O)NCC(N)=O)NC(=O)[C@H](CC(N)=O)NC(=O)[C@H](CCC(N)=O)NC1=O

>  <logBB>


>  <Class>
-1

>  <MW>
1006.44

>  <nHBAcc>
15

>  <nHBDon>
12

>  <SLogP>
-3.61

>  <TopoPSA>
399.53

>  <MMFF94 Energy>
82.454

$$$$
CCc1ccc(C(C)CCc2ccc([N+](C)(C)C)cc2)cc1
Actelion Java MolfileCreator 2.0

  0  0  0  0  0  0              0 V3000
M  V30 BEGIN CTAB
M  V30 COUNTS 52 53 0 0 0
M  V30 BEGIN ATOM
M  V30 1 N -2.2716 3.4481 -3.6051 0 CHG=1
M  V30 2 C -1.4409 2.7685 -2.5285 0
M  V30 3 C -2.3552 2.5242 -4.8155 0
M  V30 4 C -1.6628 4.7693 -4.0633 0
M  V30 5 C -3.6581 3.7414 -3.0406 0
M  V30 6 C -1.8717 1.5406 -1.9994 0
M  V30 7 C -0.2509 3.3192 -2.036 0
M  V30 8 C -1.1373 0.886 -1.0056 0
M  V30 9 C 0.4839 2.6627 -1.0404 0
M  V30 10 C 0.0434 1.4461 -0.5135 0
M  V30 11 C 0.8416 0.7319 0.5522 0
M  V30 12 C 1.8704 -0.2261 -0.0609 0
M  V30 13 C 2.7124 -0.9564 1.0063 0 CFG=1
M  V30 14 C 1.8725 -1.8595 1.8938 0
M  V30 15 C 3.8465 -1.7475 0.3443 0
M  V30 16 C 1.8079 -1.6152 3.2729 0
M  V30 17 C 1.1494 -2.9418 1.3721 0
M  V30 18 C 1.0355 -2.4273 4.1072 0
M  V30 19 C 0.3777 -3.7544 2.2067 0
M  V30 20 C 0.3086 -3.5004 3.5808 0
M  V30 21 C -0.503 -4.3922 4.4853 0
M  V30 22 C 0.3173 -5.5582 5.0151 0
M  V30 23 H -2.899 1.614 -4.548 0
M  V30 24 H -2.9007 3.048 -5.6071 0
M  V30 25 H -1.3392 2.2897 -5.149 0
M  V30 26 H -1.6128 5.4566 -3.2127 0
M  V30 27 H -0.6745 4.5798 -4.494 0
M  V30 28 H -2.3141 5.1972 -4.8331 0
M  V30 29 H -4.2269 4.2876 -3.8001 0
M  V30 30 H -4.1713 2.8023 -2.816 0
M  V30 31 H -3.5484 4.3531 -2.1392 0
M  V30 32 H -2.7836 1.0579 -2.3387 0
M  V30 33 H 0.1561 4.26 -2.3894 0
M  V30 34 H -1.4929 -0.0664 -0.6127 0
M  V30 35 H 1.4078 3.1104 -0.6746 0
M  V30 36 H 0.1474 0.1951 1.2098 0
M  V30 37 H 1.3465 1.4723 1.1856 0
M  V30 38 H 2.5439 0.3472 -0.7121 0
M  V30 39 H 1.3629 -0.9494 -0.7123 0
M  V30 40 H 3.1875 -0.19 1.6338 0
M  V30 41 H 3.4672 -2.4998 -0.3557 0
M  V30 42 H 4.5078 -1.0769 -0.2151 0
M  V30 43 H 4.4538 -2.2653 1.0953 0
M  V30 44 H 2.3647 -0.7919 3.7155 0
M  V30 45 H 1.1863 -3.172 0.3102 0
M  V30 46 H 1.0111 -2.2208 5.1753 0
M  V30 47 H -0.1633 -4.5953 1.7783 0
M  V30 48 H -1.3774 -4.7706 3.9418 0
M  V30 49 H -0.8981 -3.8056 5.3237 0
M  V30 50 H -0.2966 -6.1873 5.6674 0
M  V30 51 H 1.1783 -5.2076 5.5942 0
M  V30 52 H 0.694 -6.1827 4.198 0
M  V30 END ATOM
M  V30 BEGIN BOND
M  V30 1 1 1 2
M  V30 2 1 1 3
M  V30 3 1 1 4
M  V30 4 1 1 5
M  V30 5 2 2 6
M  V30 6 1 2 7
M  V30 7 1 6 8
M  V30 8 2 7 9
M  V30 9 2 8 10
M  V30 10 1 10 11
M  V30 11 1 11 12
M  V30 12 1 12 13
M  V30 13 1 13 14
M  V30 14 1 13 15
M  V30 15 2 14 16
M  V30 16 1 14 17
M  V30 17 1 16 18
M  V30 18 2 17 19
M  V30 19 2 18 20
M  V30 20 1 20 21
M  V30 21 1 21 22
M  V30 22 1 9 10
M  V30 23 1 19 20
M  V30 24 1 3 23
M  V30 25 1 3 24
M  V30 26 1 3 25
M  V30 27 1 4 26
M  V30 28 1 4 27
M  V30 29 1 4 28
M  V30 30 1 5 29
M  V30 31 1 5 30
M  V30 32 1 5 31
M  V30 33 1 6 32
M  V30 34 1 7 33
M  V30 35 1 8 34
M  V30 36 1 9 35
M  V30 37 1 11 36
M  V30 38 1 11 37
M  V30 39 1 12 38
M  V30 40 1 12 39
M  V30 41 1 13 40
M  V30 42 1 15 41
M  V30 43 1 15 42
M  V30 44 1 15 43
M  V30 45 1 16 44
M  V30 46 1 17 45
M  V30 47 1 18 46
M  V30 48 1 19 47
M  V30 49 1 21 48
M  V30 50 1 21 49
M  V30 51 1 22 50
M  V30 52 1 22 51
M  V30 53 1 22 52
M  V30 END BOND
M  V30 BEGIN COLLECTION
M  V30 MDLV30/STERAC1 ATOMS=(1 13)
M  V30 END COLLECTION
M  V30 END CTAB
M  END
>  <level_0>
5495

>  <index>
5495

>  <NO.>
5496

>  <Name>
cholestyramine

>  <SMILES>
CCc1ccc(C(C)CCc2ccc([N+](C)(C)C)cc2)cc1

>  <logBB>


>  <Class>
-1

>  <MW>
296.24

>  <nHBAcc>
0

>  <nHBDon>
0

>  <SLogP>
5.18

>  <TopoPSA>
0.0

>  <MMFF94 Energy>
58.486

$$$$
Cc1cc(C(C)(C(=O)OCCOCCOCCO)c2cc(C)c(O)c(C(C)(C)C)c2)cc(C(C)(C)C)c1O
Actelion Java MolfileCreator 2.0

  0  0  0  0  0  0              0 V3000
M  V30 BEGIN CTAB
M  V30 COUNTS 84 85 0 0 0
M  V30 BEGIN ATOM
M  V30 1 O -1.1807 0.0786 -1.6533 0
M  V30 2 C -0.8388 0.4108 -0.5235 0
M  V30 3 O -1.7182 0.5144 0.5197 0
M  V30 4 C 0.621 0.701 -0.0579 0
M  V30 5 C -3.0938 0.2856 0.1716 0
M  V30 6 C 1.2067 -0.4444 0.8233 0
M  V30 7 C 1.5127 0.9266 -1.3154 0
M  V30 8 C 0.5455 1.9767 0.8329 0
M  V30 9 C -3.9529 0.5066 1.4128 0
M  V30 10 C 0.55 -1.6794 0.995 0
M  V30 11 C 2.4584 -0.2807 1.4388 0
M  V30 12 C 1.9809 -0.1837 -2.0535 0
M  V30 13 C 1.8519 2.2028 -1.7837 0
M  V30 14 O -3.9683 1.9014 1.7303 0
M  V30 15 C 1.082 -2.7316 1.7729 0
M  V30 16 C 3.0318 -1.2914 2.2211 0
M  V30 17 C 2.7924 -0.0662 -3.2018 0
M  V30 18 C 2.6554 2.3774 -2.9208 0
M  V30 19 C -4.7193 2.1711 2.9162 0
M  V30 20 C 2.3371 -2.5041 2.3772 0
M  V30 21 C 0.315 -4.0679 1.9321 0
M  V30 22 C 4.3741 -1.0397 2.8502 0
M  V30 23 C 3.1104 1.2425 -3.6171 0
M  V30 24 C 3.2872 -1.3236 -3.9561 0
M  V30 25 C 2.9919 3.7774 -3.3565 0
M  V30 26 C -4.7059 3.6747 3.2091 0
M  V30 27 O 2.8837 -3.5094 3.1301 0
M  V30 28 C -1.0495 -4.0993 1.1934 0
M  V30 29 C 1.1423 -5.2362 1.3506 0
M  V30 30 C -0.0029 -4.336 3.4207 0
M  V30 31 O 3.8853 1.3982 -4.7359 0
M  V30 32 C 2.8267 -2.66 -3.3153 0
M  V30 33 C 2.7449 -1.3329 -5.4027 0
M  V30 34 C 4.8318 -1.3705 -3.9723 0
M  V30 35 O -5.3264 4.4754 2.199 0
M  V30 36 C -6.7339 4.258 2.0693 0
M  V30 37 C -7.3413 5.4046 1.2638 0
M  V30 38 O -7.4957 6.5563 2.0934 0
M  V30 39 H -3.2056 -0.7481 -0.1728 0
M  V30 40 H -3.3873 0.9856 -0.619 0
M  V30 41 H 0.0702 1.7664 1.7998 0
M  V30 42 H -0.0495 2.7656 0.356 0
M  V30 43 H 1.5344 2.3962 1.0516 0
M  V30 44 H -4.9781 0.1749 1.2164 0
M  V30 45 H -3.5399 -0.0505 2.2613 0
M  V30 46 H -0.4 -1.8281 0.4925 0
M  V30 47 H 3.0096 0.6472 1.2922 0
M  V30 48 H 1.6835 -1.1704 -1.7081 0
M  V30 49 H 1.4923 3.0919 -1.2719 0
M  V30 50 H -4.2613 1.6387 3.7575 0
M  V30 51 H -5.743 1.8066 2.7845 0
M  V30 52 H 5.1195 -1.7274 2.4382 0
M  V30 53 H 4.7259 -0.0194 2.6631 0
M  V30 54 H 4.3152 -1.1685 3.9359 0
M  V30 55 H 2.644 4.5228 -2.6332 0
M  V30 56 H 2.516 3.9981 -4.3173 0
M  V30 57 H 4.0764 3.8977 -3.4473 0
M  V30 58 H -5.1813 3.882 4.1745 0
M  V30 59 H -3.6671 4.0165 3.2715 0
M  V30 60 H 3.7841 -3.2744 3.3968 0
M  V30 61 H -0.9277 -3.9697 0.1115 0
M  V30 62 H -1.5581 -5.0599 1.342 0
M  V30 63 H -1.7274 -3.3199 1.5615 0
M  V30 64 H 2.0718 -5.4148 1.8983 0
M  V30 65 H 0.5763 -6.1748 1.3837 0
M  V30 66 H 1.4091 -5.0455 0.3043 0
M  V30 67 H -0.5532 -3.4963 3.8619 0
M  V30 68 H 0.8925 -4.4963 4.0273 0
M  V30 69 H -0.6201 -5.2351 3.5363 0
M  V30 70 H 3.8484 2.3179 -5.0357 0
M  V30 71 H 1.7338 -2.7482 -3.3032 0
M  V30 72 H 3.2079 -3.5209 -3.8781 0
M  V30 73 H 3.1936 -2.7637 -2.2871 0
M  V30 74 H 3.1315 -0.5085 -6.0083 0
M  V30 75 H 3.0231 -2.2578 -5.9219 0
M  V30 76 H 1.6506 -1.2625 -5.4123 0
M  V30 77 H 5.2368 -1.3225 -2.9543 0
M  V30 78 H 5.2781 -0.5507 -4.5419 0
M  V30 79 H 5.1932 -2.2991 -4.4302 0
M  V30 80 H -7.1989 4.2031 3.0599 0
M  V30 81 H -6.8907 3.3189 1.5299 0
M  V30 82 H -6.6986 5.6711 0.4185 0
M  V30 83 H -8.3345 5.1287 0.8977 0
M  V30 84 H -7.613 7.3168 1.4994 0
M  V30 END ATOM
M  V30 BEGIN BOND
M  V30 1 2 1 2
M  V30 2 1 2 3
M  V30 3 1 2 4
M  V30 4 1 3 5
M  V30 5 1 4 6
M  V30 6 1 4 7
M  V30 7 1 4 8
M  V30 8 1 5 9
M  V30 9 2 6 10
M  V30 10 1 6 11
M  V30 11 2 7 12
M  V30 12 1 7 13
M  V30 13 1 9 14
M  V30 14 1 10 15
M  V30 15 2 11 16
M  V30 16 1 12 17
M  V30 17 2 13 18
M  V30 18 1 14 19
M  V30 19 2 15 20
M  V30 20 1 15 21
M  V30 21 1 16 22
M  V30 22 2 17 23
M  V30 23 1 17 24
M  V30 24 1 18 25
M  V30 25 1 19 26
M  V30 26 1 20 27
M  V30 27 1 21 28
M  V30 28 1 21 29
M  V30 29 1 21 30
M  V30 30 1 23 31
M  V30 31 1 24 32
M  V30 32 1 24 33
M  V30 33 1 24 34
M  V30 34 1 26 35
M  V30 35 1 35 36
M  V30 36 1 36 37
M  V30 37 1 37 38
M  V30 38 1 16 20
M  V30 39 1 18 23
M  V30 40 1 5 39
M  V30 41 1 5 40
M  V30 42 1 8 41
M  V30 43 1 8 42
M  V30 44 1 8 43
M  V30 45 1 9 44
M  V30 46 1 9 45
M  V30 47 1 10 46
M  V30 48 1 11 47
M  V30 49 1 12 48
M  V30 50 1 13 49
M  V30 51 1 19 50
M  V30 52 1 19 51
M  V30 53 1 22 52
M  V30 54 1 22 53
M  V30 55 1 22 54
M  V30 56 1 25 55
M  V30 57 1 25 56
M  V30 58 1 25 57
M  V30 59 1 26 58
M  V30 60 1 26 59
M  V30 61 1 27 60
M  V30 62 1 28 61
M  V30 63 1 28 62
M  V30 64 1 28 63
M  V30 65 1 29 64
M  V30 66 1 29 65
M  V30 67 1 29 66
M  V30 68 1 30 67
M  V30 69 1 30 68
M  V30 70 1 30 69
M  V30 71 1 31 70
M  V30 72 1 32 71
M  V30 73 1 32 72
M  V30 74 1 32 73
M  V30 75 1 33 74
M  V30 76 1 33 75
M  V30 77 1 33 76
M  V30 78 1 34 77
M  V30 79 1 34 78
M  V30 80 1 34 79
M  V30 81 1 36 80
M  V30 82 1 36 81
M  V30 83 1 37 82
M  V30 84 1 37 83
M  V30 85 1 38 84
M  V30 END BOND
M  V30 END CTAB
M  END
>  <level_0>
5528

>  <index>
5528

>  <NO.>
5529

>  <Name>
fluticasonepropionate

>  <SMILES>
Cc1cc(C(C)(C(=O)OCCOCCOCCO)c2cc(C)c(O)c(C(C)(C)C)c2)cc(C(C)(C)C)c1O

>  <logBB>


>  <Class>
-1

>  <MW>
530.32

>  <nHBAcc>
7

>  <nHBDon>
3

>  <SLogP>
5.18

>  <TopoPSA>
105.45

>  <MMFF94 Energy>
184.69

$$$$
Cc1ccc(O)c([C@H](CCN(C(C)C)C(C)C)c2ccccc2)c1
Actelion Java MolfileCreator 2.0

  0  0  0  0  0  0              0 V3000
M  V30 BEGIN CTAB
M  V30 COUNTS 55 56 0 0 0
M  V30 BEGIN ATOM
M  V30 1 O 0.9397 1.4881 2.8996 0
M  V30 2 C 1.6054 1.7511 1.7348 0
M  V30 3 C 0.9039 1.7181 0.5229 0
M  V30 4 C 2.9696 2.0401 1.7726 0
M  V30 5 C 1.6181 1.9801 -0.6613 0
M  V30 6 C -0.5899 1.4015 0.4732 0 CFG=1
M  V30 7 C 3.6588 2.2973 0.5876 0
M  V30 8 C 2.9921 2.2571 -0.6399 0
M  V30 9 C -1.3961 2.588 -0.0662 0
M  V30 10 C -0.876 0.0589 -0.2496 0
M  V30 11 C 3.7203 2.5682 -1.9137 0
M  V30 12 C -1.8823 2.6513 -1.381 0
M  V30 13 C -1.6412 3.6798 0.7862 0
M  V30 14 C -0.291 -1.1478 0.5081 0
M  V30 15 C -2.6025 3.7642 -1.8236 0
M  V30 16 C -2.3602 4.7911 0.3427 0
M  V30 17 N -0.5458 -2.4236 -0.1847 0
M  V30 18 C -2.8426 4.832 -0.9622 0
M  V30 19 C 0.4861 -3.4567 0.0432 0
M  V30 20 C -1.9454 -2.8875 -0.0881 0
M  V30 21 C 1.6379 -3.219 -0.9443 0
M  V30 22 C 1.0437 -3.5595 1.4707 0
M  V30 23 C -2.3051 -3.751 -1.3057 0
M  V30 24 C -2.3143 -3.6166 1.2071 0
M  V30 25 H 1.5631 1.5724 3.6394 0
M  V30 26 H 3.5123 2.0706 2.7121 0
M  V30 27 H 1.0951 1.9723 -1.6159 0
M  V30 28 H -0.963 1.2549 1.4964 0
M  V30 29 H 4.7204 2.5295 0.6276 0
M  V30 30 H -1.9621 -0.0519 -0.3445 0
M  V30 31 H -0.4699 0.0676 -1.2691 0
M  V30 32 H 3.2977 2.0043 -2.7518 0
M  V30 33 H 3.649 3.6377 -2.1337 0
M  V30 34 H 4.7773 2.2926 -1.8376 0
M  V30 35 H -1.7058 1.8408 -2.0827 0
M  V30 36 H -1.2629 3.6667 1.8069 0
M  V30 37 H 0.7885 -0.9815 0.5755 0
M  V30 38 H -0.6703 -1.1775 1.5363 0
M  V30 39 H -2.9738 3.7971 -2.8444 0
M  V30 40 H -2.5391 5.6246 1.0164 0
M  V30 41 H -3.4012 5.6968 -1.3092 0
M  V30 42 H 0.0839 -4.4434 -0.212 0
M  V30 43 H -2.6128 -2.0217 -0.1546 0
M  V30 44 H 1.2698 -3.2003 -1.9763 0
M  V30 45 H 2.3757 -4.0259 -0.874 0
M  V30 46 H 2.1591 -2.2751 -0.7528 0
M  V30 47 H 1.7047 -4.43 1.5518 0
M  V30 48 H 1.6346 -2.6821 1.7527 0
M  V30 49 H 0.2508 -3.6866 2.2121 0
M  V30 50 H -2.06 -3.2316 -2.2388 0
M  V30 51 H -3.3812 -3.9578 -1.3201 0
M  V30 52 H -1.7876 -4.7151 -1.305 0
M  V30 53 H -3.389 -3.8306 1.2273 0
M  V30 54 H -1.793 -4.5739 1.3048 0
M  V30 55 H -2.091 -3.0052 2.0869 0
M  V30 END ATOM
M  V30 BEGIN BOND
M  V30 1 1 1 2
M  V30 2 2 2 3
M  V30 3 1 2 4
M  V30 4 1 3 5
M  V30 5 1 3 6
M  V30 6 2 4 7
M  V30 7 2 5 8
M  V30 8 1 6 9
M  V30 9 1 6 10
M  V30 10 1 8 11
M  V30 11 2 9 12
M  V30 12 1 9 13
M  V30 13 1 10 14
M  V30 14 1 12 15
M  V30 15 2 13 16
M  V30 16 1 14 17
M  V30 17 2 15 18
M  V30 18 1 17 19
M  V30 19 1 17 20
M  V30 20 1 19 21
M  V30 21 1 19 22
M  V30 22 1 20 23
M  V30 23 1 20 24
M  V30 24 1 7 8
M  V30 25 1 16 18
M  V30 26 1 1 25
M  V30 27 1 4 26
M  V30 28 1 5 27
M  V30 29 1 6 28
M  V30 30 1 7 29
M  V30 31 1 10 30
M  V30 32 1 10 31
M  V30 33 1 11 32
M  V30 34 1 11 33
M  V30 35 1 11 34
M  V30 36 1 12 35
M  V30 37 1 13 36
M  V30 38 1 14 37
M  V30 39 1 14 38
M  V30 40 1 15 39
M  V30 41 1 16 40
M  V30 42 1 18 41
M  V30 43 1 19 42
M  V30 44 1 20 43
M  V30 45 1 21 44
M  V30 46 1 21 45
M  V30 47 1 21 46
M  V30 48 1 22 47
M  V30 49 1 22 48
M  V30 50 1 22 49
M  V30 51 1 23 50
M  V30 52 1 23 51
M  V30 53 1 23 52
M  V30 54 1 24 53
M  V30 55 1 24 54
M  V30 56 1 24 55
M  V30 END BOND
M  V30 BEGIN COLLECTION
M  V30 MDLV30/STEABS ATOMS=(1 6)
M  V30 END COLLECTION
M  V30 END CTAB
M  END
>  <level_0>
5530

>  <index>
5530

>  <NO.>
5531

>  <Name>
tolterodine

>  <SMILES>
Cc1ccc(O)c([C@H](CCN(C(C)C)C(C)C)c2ccccc2)c1

>  <logBB>


>  <Class>
-1

>  <MW>
325.24

>  <nHBAcc>
2

>  <nHBDon>
1

>  <SLogP>
5.34

>  <TopoPSA>
23.47

>  <MMFF94 Energy>
53.398

$$$$
ClCC1CO1.NCCNCCNCCNCCN
Actelion Java MolfileCreator 2.0

  0  0  0  0  0  0              0 V3000
M  V30 BEGIN CTAB
M  V30 COUNTS 46 45 0 0 0
M  V30 BEGIN ATOM
M  V30 1 Cl 0.0773 -0.3095 9.5522 0
M  V30 2 C 0.9023 -0.1141 7.9908 0
M  V30 3 C -0.0281 -0.5204 6.9032 0 CFG=2
M  V30 4 O 0.2373 0.0921 5.6342 0
M  V30 5 C -0.9905 0.4576 6.2819 0
M  V30 6 N 0.5287 0.2848 -1.2736 0
M  V30 7 C 0.5227 0.6245 0.1587 0
M  V30 8 C 0.0977 1.4326 -2.0801 0
M  V30 9 C 0.9883 -0.5605 1.0324 0
M  V30 10 C 0.0881 1.0726 -3.579 0
M  V30 11 N 0.3117 -1.815 0.6611 0
M  V30 12 N -0.3357 2.221 -4.3903 0
M  V30 13 C 0.7486 -2.9131 1.5402 0
M  V30 14 C -0.3421 1.8725 -5.8213 0
M  V30 15 C 0.0488 -4.2388 1.179 0
M  V30 16 C -0.754 3.0867 -6.6793 0
M  V30 17 N 0.0512 -4.5025 -0.2651 0
M  V30 18 N -1.9656 3.7337 -6.162 0
M  V30 19 H 1.7927 -0.7489 7.995 0
M  V30 20 H 1.2156 0.9306 7.9038 0
M  V30 21 H -0.2768 -1.5731 6.9129 0
M  V30 22 H -1.0644 1.4562 6.6942 0
M  V30 23 H -1.9114 0.0731 5.8614 0
M  V30 24 H -0.141 -0.4762 -1.4008 0
M  V30 25 H 1.1831 1.4784 0.3501 0
M  V30 26 H -0.4925 0.9084 0.4631 0
M  V30 27 H -0.9076 1.7506 -1.7767 0
M  V30 28 H 0.7823 2.2742 -1.9174 0
M  V30 29 H 0.7868 -0.3164 2.0821 0
M  V30 30 H 2.0727 -0.6812 0.9167 0
M  V30 31 H -0.5991 0.2334 -3.742 0
M  V30 32 H 1.0926 0.7512 -3.8811 0
M  V30 33 H 0.6319 -2.0561 -0.2809 0
M  V30 34 H 0.3181 2.9918 -4.244 0
M  V30 35 H 1.8332 -3.0487 1.4454 0
M  V30 36 H 0.5277 -2.6753 2.5872 0
M  V30 37 H 0.6485 1.5305 -6.1422 0
M  V30 38 H -1.0573 1.0593 -5.994 0
M  V30 39 H -0.9912 -4.2072 1.524 0
M  V30 40 H 0.5443 -5.0649 1.6996 0
M  V30 41 H -0.9151 2.7769 -7.7169 0
M  V30 42 H 0.0552 3.8254 -6.6781 0
M  V30 43 H -0.455 -5.3695 -0.4394 0
M  V30 44 H -0.5045 -3.7679 -0.7057 0
M  V30 45 H -2.7424 3.0789 -6.2555 0
M  V30 46 H -1.8391 3.8004 -5.146 0
M  V30 END ATOM
M  V30 BEGIN BOND
M  V30 1 1 1 2
M  V30 2 1 2 3
M  V30 3 1 3 4
M  V30 4 1 3 5
M  V30 5 1 6 7
M  V30 6 1 6 8
M  V30 7 1 7 9
M  V30 8 1 8 10
M  V30 9 1 9 11
M  V30 10 1 10 12
M  V30 11 1 11 13
M  V30 12 1 12 14
M  V30 13 1 13 15
M  V30 14 1 14 16
M  V30 15 1 15 17
M  V30 16 1 16 18
M  V30 17 1 4 5
M  V30 18 1 2 19
M  V30 19 1 2 20
M  V30 20 1 3 21
M  V30 21 1 5 22
M  V30 22 1 5 23
M  V30 23 1 6 24
M  V30 24 1 7 25
M  V30 25 1 7 26
M  V30 26 1 8 27
M  V30 27 1 8 28
M  V30 28 1 9 29
M  V30 29 1 9 30
M  V30 30 1 10 31
M  V30 31 1 10 32
M  V30 32 1 11 33
M  V30 33 1 12 34
M  V30 34 1 13 35
M  V30 35 1 13 36
M  V30 36 1 14 37
M  V30 37 1 14 38
M  V30 38 1 15 39
M  V30 39 1 15 40
M  V30 40 1 16 41
M  V30 41 1 16 42
M  V30 42 1 17 43
M  V30 43 1 17 44
M  V30 44 1 18 45
M  V30 45 1 18 46
M  V30 END BOND
M  V30 BEGIN COLLECTION
M  V30 MDLV30/STERAC1 ATOMS=(1 3)
M  V30 END COLLECTION
M  V30 END CTAB
M  END
>  <level_0>
5538

>  <index>
5538

>  <NO.>
5539

>  <Name>
colestipol

>  <SMILES>
ClCC1CO1.NCCNCCNCCNCCN

>  <logBB>


>  <Class>
-1

>  <MW>
281.2

>  <nHBAcc>
6

>  <nHBDon>
5

>  <SLogP>
-1.7

>  <TopoPSA>
100.66

>  <MMFF94 Energy>
66.992

$$$$
Clc1ccc(CO/N=C(\Cn2ccnc2)c2ccc(Cl)cc2Cl)c(Cl)c1
Actelion Java MolfileCreator 2.0

  0  0  0  0  0  0              0 V3000
M  V30 BEGIN CTAB
M  V30 COUNTS 39 41 0 0 0
M  V30 BEGIN ATOM
M  V30 1 Cl 1.6691 -3.7585 1.1682 0
M  V30 2 C 0.5026 -2.718 1.8991 0
M  V30 3 C 0.166 -1.4726 1.3576 0
M  V30 4 C -0.0883 -3.1361 3.0938 0
M  V30 5 C 0.7453 -0.9728 0.0863 0
M  V30 6 C -0.7332 -0.631 2.0263 0
M  V30 7 C -0.9988 -2.3038 3.7445 0
M  V30 8 N 1.536 0.058 0.167 0
M  V30 9 C 0.3827 -1.6771 -1.2154 0
M  V30 10 C -1.3205 -1.0524 3.2197 0
M  V30 11 Cl -1.721 -2.8185 5.2185 0
M  V30 12 O 2.0316 0.4189 -1.0951 0
M  V30 13 N -0.9551 -2.2431 -1.2179 0
M  V30 14 C 2.6675 1.6979 -1.0117 0
M  V30 15 C -1.2688 -3.5702 -1.1711 0
M  V30 16 C -2.1263 -1.5412 -1.301 0
M  V30 17 C 1.6396 2.8044 -1.0295 0
M  V30 18 N -2.5699 -3.7524 -1.1691 0
M  V30 19 C -3.1136 -2.4971 -1.2578 0
M  V30 20 C 0.9064 3.1301 -2.182 0
M  V30 21 C 1.3786 3.5138 0.1561 0
M  V30 22 Cl 1.1453 2.297 -3.6768 0
M  V30 23 C -0.0517 4.147 -2.1547 0
M  V30 24 C 0.4212 4.5293 0.1841 0
M  V30 25 C -0.288 4.8414 -0.9718 0
M  V30 26 Cl -1.4706 6.0902 -0.9356 0
M  V30 27 H 0.1634 -4.1033 3.5216 0
M  V30 28 H -0.982 0.3463 1.6179 0
M  V30 29 H 1.1055 -2.4713 -1.423 0
M  V30 30 H 0.4032 -0.9751 -2.0556 0
M  V30 31 H -2.0257 -0.4037 3.734 0
M  V30 32 H 3.3461 1.8005 -1.8654 0
M  V30 33 H 3.2991 1.7439 -0.1154 0
M  V30 34 H -0.5256 -4.3565 -1.1332 0
M  V30 35 H -2.1619 -0.4633 -1.3781 0
M  V30 36 H -4.1855 -2.3499 -1.2909 0
M  V30 37 H 1.9163 3.2678 1.0706 0
M  V30 38 H -0.613 4.3944 -3.0518 0
M  V30 39 H 0.2323 5.0676 1.1096 0
M  V30 END ATOM
M  V30 BEGIN BOND
M  V30 1 1 1 2
M  V30 2 2 2 3
M  V30 3 1 2 4
M  V30 4 1 3 5
M  V30 5 1 3 6
M  V30 6 2 4 7
M  V30 7 2 5 8
M  V30 8 1 5 9
M  V30 9 2 6 10
M  V30 10 1 7 11
M  V30 11 1 8 12
M  V30 12 1 9 13
M  V30 13 1 12 14
M  V30 14 1 13 15
M  V30 15 1 13 16
M  V30 16 1 14 17
M  V30 17 2 15 18
M  V30 18 2 16 19
M  V30 19 2 17 20
M  V30 20 1 17 21
M  V30 21 1 20 22
M  V30 22 1 20 23
M  V30 23 2 21 24
M  V30 24 2 23 25
M  V30 25 1 25 26
M  V30 26 1 7 10
M  V30 27 1 18 19
M  V30 28 1 24 25
M  V30 29 1 4 27
M  V30 30 1 6 28
M  V30 31 1 9 29
M  V30 32 1 9 30
M  V30 33 1 10 31
M  V30 34 1 14 32
M  V30 35 1 14 33
M  V30 36 1 15 34
M  V30 37 1 16 35
M  V30 38 1 19 36
M  V30 39 1 21 37
M  V30 40 1 23 38
M  V30 41 1 24 39
M  V30 END BOND
M  V30 END CTAB
M  END
>  <level_0>
5539

>  <index>
5539

>  <NO.>
5540

>  <Name>
oxiconazole

>  <SMILES>
Clc1ccc(CO/N=C(\Cn2ccnc2)c2ccc(Cl)cc2Cl)c(Cl)c1

>  <logBB>


>  <Class>
-1

>  <MW>
426.98

>  <nHBAcc>
3

>  <nHBDon>
0

>  <SLogP>
6.12

>  <TopoPSA>
39.41

>  <MMFF94 Energy>
64.047

$$$$
Nc1ccn(C[C@@H](CO)OCP(=O)(O)O)c(=O)n1
Actelion Java MolfileCreator 2.0

  0  0  0  0  0  0              0 V3000
M  V30 BEGIN CTAB
M  V30 COUNTS 32 32 0 0 0
M  V30 BEGIN ATOM
M  V30 1 P 3.5258 0.3201 -1.7617 0
M  V30 2 O 3.5141 -0.5895 -2.9439 0
M  V30 3 O 4.1279 -0.4067 -0.4631 0
M  V30 4 O 4.5934 1.5035 -1.949 0
M  V30 5 C 2.0022 1.1152 -1.2567 0
M  V30 6 O 1.0233 0.1225 -0.912 0
M  V30 7 C 1.0439 -0.2421 0.4857 0 CFG=2
M  V30 8 C 0.7483 -1.7462 0.5768 0
M  V30 9 C 0.0764 0.6524 1.2955 0
M  V30 10 O -0.3714 -2.1121 -0.2264 0
M  V30 11 N -1.3486 0.4175 1.0627 0
M  V30 12 C -2.0698 -0.3395 1.9969 0
M  V30 13 C -1.9472 0.9147 -0.0715 0
M  V30 14 O -1.5226 -0.7856 3.005 0
M  V30 15 N -3.4093 -0.5512 1.7728 0
M  V30 16 C -3.2374 0.6985 -0.318 0
M  V30 17 C -3.9652 -0.0847 0.6995 0
M  V30 18 N -5.2909 -0.3413 0.5296 0
M  V30 19 H 4.8478 -1.0271 -0.6846 0
M  V30 20 H 5.4036 1.2094 -2.4061 0
M  V30 21 H 2.1601 1.8213 -0.4348 0
M  V30 22 H 1.6069 1.677 -2.1081 0
M  V30 23 H 2.0474 -0.0814 0.8968 0
M  V30 24 H 1.6037 -2.3071 0.1852 0
M  V30 25 H 0.5753 -2.0677 1.6078 0
M  V30 26 H 0.2707 1.7091 1.0721 0
M  V30 27 H 0.2967 0.5182 2.3609 0
M  V30 28 H -0.2915 -1.5807 -1.0417 0
M  V30 29 H -1.3273 1.4783 -0.7607 0
M  V30 30 H -3.7473 1.0612 -1.1973 0
M  V30 31 H -5.8183 -0.0549 -0.2806 0
M  V30 32 H -5.7491 -0.8984 1.2403 0
M  V30 END ATOM
M  V30 BEGIN BOND
M  V30 1 2 1 2
M  V30 2 1 1 3
M  V30 3 1 1 4
M  V30 4 1 1 5
M  V30 5 1 5 6
M  V30 6 1 6 7
M  V30 7 1 7 8
M  V30 8 1 7 9
M  V30 9 1 8 10
M  V30 10 1 9 11
M  V30 11 1 11 12
M  V30 12 1 11 13
M  V30 13 2 12 14
M  V30 14 1 12 15
M  V30 15 2 13 16
M  V30 16 2 15 17
M  V30 17 1 17 18
M  V30 18 1 16 17
M  V30 19 1 3 19
M  V30 20 1 4 20
M  V30 21 1 5 21
M  V30 22 1 5 22
M  V30 23 1 7 23
M  V30 24 1 8 24
M  V30 25 1 8 25
M  V30 26 1 9 26
M  V30 27 1 9 27
M  V30 28 1 10 28
M  V30 29 1 13 29
M  V30 30 1 16 30
M  V30 31 1 18 31
M  V30 32 1 18 32
M  V30 END BOND
M  V30 BEGIN COLLECTION
M  V30 MDLV30/STEABS ATOMS=(1 7)
M  V30 END COLLECTION
M  V30 END CTAB
M  END
>  <level_0>
5548

>  <index>
5548

>  <NO.>
5549

>  <Name>
cidofovir

>  <SMILES>
Nc1ccn(C[C@@H](CO)OCP(=O)(O)O)c(=O)n1

>  <logBB>


>  <Class>
-1

>  <MW>
279.06

>  <nHBAcc>
6

>  <nHBDon>
4

>  <SLogP>
-1.66

>  <TopoPSA>
147.9

>  <MMFF94 Energy>
-103.04

$$$$
Nc1ccn([C@@H]2O[C@H](CO)[C@@H](O)C2(F)F)c(=O)n1
Actelion Java MolfileCreator 2.0

  0  0  0  0  0  0              0 V3000
M  V30 BEGIN CTAB
M  V30 COUNTS 29 30 0 0 0
M  V30 BEGIN ATOM
M  V30 1 F -1.043 2.3279 -1.2838 0
M  V30 2 C -0.0399 1.634 -0.7193 0
M  V30 3 F -0.1095 1.8486 0.6224 0
M  V30 4 C -0.0244 0.1379 -1.0502 0 CFG=1
M  V30 5 C 1.3226 2.0801 -1.2155 0 CFG=2
M  V30 6 O 1.3561 -0.3045 -0.9092 0
M  V30 7 N -0.911 -0.6747 -0.2213 0
M  V30 8 O 1.3347 2.245 -2.6417 0
M  V30 9 C 2.1913 0.8828 -0.835 0 CFG=2
M  V30 10 C -2.2549 -0.7167 -0.6044 0
M  V30 11 C -0.474 -1.3029 0.9226 0
M  V30 12 C 2.7581 0.9632 0.5853 0
M  V30 13 O -2.6401 -0.1242 -1.6094 0
M  V30 14 N -3.1334 -1.4404 0.1648 0
M  V30 15 C -1.3126 -1.999 1.6879 0
M  V30 16 O 3.6017 -0.1632 0.8234 0
M  V30 17 C -2.7152 -2.0431 1.2327 0
M  V30 18 N -3.6355 -2.7415 1.9506 0
M  V30 19 H -0.2868 -0.0106 -2.1052 0
M  V30 20 H 1.6524 3.0192 -0.7616 0
M  V30 21 H 2.186 2.6429 -2.8969 0
M  V30 22 H 3.0088 0.7294 -1.5485 0
M  V30 23 H 0.5739 -1.2164 1.1862 0
M  V30 24 H 3.3571 1.8683 0.7208 0
M  V30 25 H 1.9733 0.9406 1.3461 0
M  V30 26 H -1.014 -2.5079 2.592 0
M  V30 27 H 3.1396 -0.9419 0.4573 0
M  V30 28 H -4.5885 -2.7461 1.6077 0
M  V30 29 H -3.4222 -3.2462 2.7975 0
M  V30 END ATOM
M  V30 BEGIN BOND
M  V30 1 1 1 2
M  V30 2 1 2 3
M  V30 3 1 2 4
M  V30 4 1 2 5
M  V30 5 1 4 6
M  V30 6 1 4 7
M  V30 7 1 5 8
M  V30 8 1 5 9
M  V30 9 1 7 10
M  V30 10 1 7 11
M  V30 11 1 9 12
M  V30 12 2 10 13
M  V30 13 1 10 14
M  V30 14 2 11 15
M  V30 15 1 12 16
M  V30 16 2 14 17
M  V30 17 1 17 18
M  V30 18 1 6 9
M  V30 19 1 15 17
M  V30 20 1 4 19
M  V30 21 1 5 20
M  V30 22 1 8 21
M  V30 23 1 9 22
M  V30 24 1 11 23
M  V30 25 1 12 24
M  V30 26 1 12 25
M  V30 27 1 15 26
M  V30 28 1 16 27
M  V30 29 1 18 28
M  V30 30 1 18 29
M  V30 END BOND
M  V30 BEGIN COLLECTION
M  V30 MDLV30/STEABS ATOMS=(3 4 5 9)
M  V30 END COLLECTION
M  V30 END CTAB
M  END
>  <level_0>
5550

>  <index>
5550

>  <NO.>
5551

>  <Name>
gemcitabine

>  <SMILES>
Nc1ccn([C@@H]2O[C@H](CO)[C@@H](O)C2(F)F)c(=O)n1

>  <logBB>


>  <Class>
-1

>  <MW>
263.07

>  <nHBAcc>
6

>  <nHBDon>
3

>  <SLogP>
-1.29

>  <TopoPSA>
110.6

>  <MMFF94 Energy>
10.896

$$$$
O=[N+]([O-])O[C@H]1CO[C@H]2[C@@H]1OC[C@H]2O[N+](=O)[O-]
Actelion Java MolfileCreator 2.0

  0  0  0  0  0  0              0 V3000
M  V30 BEGIN CTAB
M  V30 COUNTS 24 25 0 0 0
M  V30 BEGIN ATOM
M  V30 1 O 3.2759 -2.1284 2.866 0
M  V30 2 N 3.0478 -1.4759 1.8507 0 CHG=1
M  V30 3 O 1.835 -1.847 1.2245 0
M  V30 4 O 3.6893 -0.5606 1.3366 0 CHG=-1
M  V30 5 C 1.5794 -1.1277 0.0156 0 CFG=2
M  V30 6 C 0.9105 0.2026 0.3014 0 CFG=1
M  V30 7 C 0.4684 -1.863 -0.7253 0
M  V30 8 O 0.931 1.0489 -0.8667 0
M  V30 9 C -0.54 -0.1747 0.5423 0 CFG=2
M  V30 10 O -0.7858 -1.383 -0.2045 0
M  V30 11 C -0.4281 1.3559 -1.2293 0
M  V30 12 C -1.2926 1.0169 -0.0238 0 CFG=1
M  V30 13 O -2.628 0.662 -0.3437 0
M  V30 14 N -3.4492 1.7718 -0.641 0 CHG=1
M  V30 15 O -2.9264 2.8858 -0.5972 0
M  V30 16 O -4.604 1.4529 -0.9124 0 CHG=-1
M  V30 17 H 2.4655 -1.0782 -0.6279 0
M  V30 18 H 1.3356 0.7636 1.1389 0
M  V30 19 H 0.4839 -1.6325 -1.7958 0
M  V30 20 H 0.5075 -2.9483 -0.5941 0
M  V30 21 H -0.7795 -0.3817 1.5897 0
M  V30 22 H -0.6987 0.7633 -2.1103 0
M  V30 23 H -0.4878 2.4118 -1.5079 0
M  V30 24 H -1.2476 1.8177 0.7279 0
M  V30 END ATOM
M  V30 BEGIN BOND
M  V30 1 2 1 2
M  V30 2 1 2 3
M  V30 3 1 2 4
M  V30 4 1 3 5
M  V30 5 1 5 6
M  V30 6 1 5 7
M  V30 7 1 6 8
M  V30 8 1 6 9
M  V30 9 1 7 10
M  V30 10 1 8 11
M  V30 11 1 9 12
M  V30 12 1 12 13
M  V30 13 1 13 14
M  V30 14 2 14 15
M  V30 15 1 14 16
M  V30 16 1 9 10
M  V30 17 1 11 12
M  V30 18 1 5 17
M  V30 19 1 6 18
M  V30 20 1 7 19
M  V30 21 1 7 20
M  V30 22 1 9 21
M  V30 23 1 11 22
M  V30 24 1 11 23
M  V30 25 1 12 24
M  V30 END BOND
M  V30 BEGIN COLLECTION
M  V30 MDLV30/STEABS ATOMS=(4 5 6 9 12)
M  V30 END COLLECTION
M  V30 END CTAB
M  END
>  <level_0>
5556

>  <index>
5556

>  <NO.>
5557

>  <Name>
isosorbide dinitrate

>  <SMILES>
O=[N+]([O-])O[C@H]1CO[C@H]2[C@@H]1OC[C@H]2O[N+](=O)[O-]

>  <logBB>


>  <Class>
-1

>  <MW>
236.03

>  <nHBAcc>
8

>  <nHBDon>
0

>  <SLogP>
-1.06

>  <TopoPSA>
123.2

>  <MMFF94 Energy>
19.203

$$$$
C#CCC(Cc1cnc2nc(N)nc(N)c2n1)c1ccc(C(=O)NC(CCC(=O)O)C(=O)O)cc1
Actelion Java MolfileCreator 2.0

  0  0  0  0  0  0              0 V3000
M  V30 BEGIN CTAB
M  V30 COUNTS 58 60 0 0 0
M  V30 BEGIN ATOM
M  V30 1 O 4.5276 1.5868 -0.6345 0
M  V30 2 C 4.0681 0.5739 -0.1195 0
M  V30 3 N 4.8593 -0.4089 0.4272 0
M  V30 4 C 2.5962 0.3459 -0.0879 0
M  V30 5 C 6.3201 -0.3257 0.4336 0
M  V30 6 C 1.9828 -0.4638 0.8732 0
M  V30 7 C 1.8052 0.9959 -1.0409 0
M  V30 8 C 6.8498 -1.7471 0.2576 0
M  V30 9 C 6.8582 0.2552 1.7429 0
M  V30 10 C 0.5948 -0.6404 0.8597 0
M  V30 11 C 0.4188 0.8174 -1.0528 0
M  V30 12 O 6.2503 -2.7752 0.5404 0
M  V30 13 O 8.1062 -1.7937 -0.2255 0
M  V30 14 C 6.5439 1.7416 1.9142 0
M  V30 15 C -0.2045 -0.0114 -0.109 0
M  V30 16 C 7.1949 2.2952 3.1516 0
M  V30 17 C -1.7177 -0.2222 -0.0846 0
M  V30 18 O 7.8094 1.6754 4.0029 0
M  V30 19 O 7.0247 3.6264 3.262 0
M  V30 20 C -2.4353 0.8944 0.7095 0
M  V30 21 C -2.3012 -0.4745 -1.4945 0
M  V30 22 C -2.4454 2.2062 0.0394 0
M  V30 23 C -3.6894 -1.0523 -1.4528 0
M  V30 24 C -2.4615 3.2802 -0.4976 0
M  V30 25 N -4.7314 -0.1973 -1.4347 0
M  V30 26 C -3.9068 -2.4168 -1.3997 0
M  V30 27 C -5.9824 -0.7525 -1.3767 0
M  V30 28 N -5.1441 -2.9611 -1.3319 0
M  V30 29 C -6.1972 -2.1341 -1.322 0
M  V30 30 C -7.152 -0.0021 -1.3476 0
M  V30 31 N -7.4061 -2.6808 -1.2529 0
M  V30 32 N -8.3811 -0.5362 -1.2862 0
M  V30 33 N -7.1014 1.3833 -1.4374 0
M  V30 34 C -8.4525 -1.8632 -1.2396 0
M  V30 35 N -9.6921 -2.4256 -1.1733 0
M  V30 36 H 4.4555 -1.2896 0.727 0
M  V30 37 H 6.6427 0.2675 -0.4296 0
M  V30 38 H 2.5583 -0.9439 1.6589 0
M  V30 39 H 2.2667 1.6493 -1.7793 0
M  V30 40 H 6.4532 -0.3051 2.5965 0
M  V30 41 H 7.9467 0.1148 1.7815 0
M  V30 42 H 0.1412 -1.2693 1.624 0
M  V30 43 H -0.1627 1.3494 -1.8027 0
M  V30 44 H 8.3164 -2.7499 -0.2756 0
M  V30 45 H 6.9183 2.3017 1.0506 0
M  V30 46 H 5.4649 1.8973 2.0094 0
M  V30 47 H -1.8837 -1.1488 0.4858 0
M  V30 48 H 7.4821 3.8614 4.0959 0
M  V30 49 H -1.9602 1.0054 1.6928 0
M  V30 50 H -3.4702 0.5932 0.9108 0
M  V30 51 H -1.6556 -1.1688 -2.0494 0
M  V30 52 H -2.3225 0.4458 -2.0905 0
M  V30 53 H -2.4735 4.2347 -0.9716 0
M  V30 54 H -3.0884 -3.1295 -1.4066 0
M  V30 55 H -6.2306 1.8387 -1.1944 0
M  V30 56 H -7.981 1.874 -1.3832 0
M  V30 57 H -9.7567 -3.4286 -1.1514 0
M  V30 58 H -10.4918 -1.8172 -1.1781 0
M  V30 END ATOM
M  V30 BEGIN BOND
M  V30 1 2 1 2
M  V30 2 1 2 3
M  V30 3 1 2 4
M  V30 4 1 3 5
M  V30 5 2 4 6
M  V30 6 1 4 7
M  V30 7 1 5 8
M  V30 8 1 5 9
M  V30 9 1 6 10
M  V30 10 2 7 11
M  V30 11 2 8 12
M  V30 12 1 8 13
M  V30 13 1 9 14
M  V30 14 2 10 15
M  V30 15 1 14 16
M  V30 16 1 15 17
M  V30 17 2 16 18
M  V30 18 1 16 19
M  V30 19 1 17 20
M  V30 20 1 17 21
M  V30 21 1 20 22
M  V30 22 1 21 23
M  V30 23 3 22 24
M  V30 24 2 23 25
M  V30 25 1 23 26
M  V30 26 1 25 27
M  V30 27 2 26 28
M  V30 28 1 27 29
M  V30 29 2 27 30
M  V30 30 2 29 31
M  V30 31 1 30 32
M  V30 32 1 30 33
M  V30 33 1 31 34
M  V30 34 1 34 35
M  V30 35 1 11 15
M  V30 36 1 28 29
M  V30 37 2 32 34
M  V30 38 1 3 36
M  V30 39 1 5 37
M  V30 40 1 6 38
M  V30 41 1 7 39
M  V30 42 1 9 40
M  V30 43 1 9 41
M  V30 44 1 10 42
M  V30 45 1 11 43
M  V30 46 1 13 44
M  V30 47 1 14 45
M  V30 48 1 14 46
M  V30 49 1 17 47
M  V30 50 1 19 48
M  V30 51 1 20 49
M  V30 52 1 20 50
M  V30 53 1 21 51
M  V30 54 1 21 52
M  V30 55 1 24 53
M  V30 56 1 26 54
M  V30 57 1 33 55
M  V30 58 1 33 56
M  V30 59 1 35 57
M  V30 60 1 35 58
M  V30 END BOND
M  V30 END CTAB
M  END
>  <level_0>
5570

>  <index>
5570

>  <NO.>
5571

>  <Name>
chembl306438

>  <SMILES>
C#CCC(Cc1cnc2nc(N)nc(N)c2n1)c1ccc(C(=O)NC(CCC(=O)O)C(=O)O)cc1

>  <logBB>


>  <Class>
-1

>  <MW>
477.18

>  <nHBAcc>
9

>  <nHBDon>
5

>  <SLogP>
0.98

>  <TopoPSA>
207.3

>  <MMFF94 Energy>
-25.561

$$$$
C/C=C1/CN(C)C2Cc3c([nH]c4ccccc34)C(c3cc4[nH]c5c(c4cc3OC)CCN3CC4CC(CC)C3C5(C(=O)OC)C4)CC1C2C(=O)OC
Actelion Java MolfileCreator 2.0

  0  0  0  0  0  0              0 V3000
M  V30 BEGIN CTAB
M  V30 COUNTS 104 112 0 0 0
M  V30 BEGIN ATOM
M  V30 1 O -3.0604 -3.5442 -2.4155 0
M  V30 2 C -2.2329 -3.4667 -3.3202 0
M  V30 3 O -1.489 -4.519 -3.7616 0
M  V30 4 C -1.8536 -2.1416 -4.0183 0
M  V30 5 C -1.7544 -5.7506 -3.0893 0
M  V30 6 C -0.8201 -1.473 -3.107 0
M  V30 7 C -1.3108 -2.3826 -5.4792 0
M  V30 8 C -3.1198 -1.2344 -4.1451 0
M  V30 9 N -1.1017 -1.1891 -1.7881 0
M  V30 10 C 0.4789 -1.0525 -3.3506 0
M  V30 11 N -0.8839 -1.1229 -6.1365 0
M  V30 12 C -2.4669 -2.9442 -6.3784 0
M  V30 13 C -3.2474 -0.6926 -5.5814 0
M  V30 14 C -0.0341 -0.57 -1.188 0
M  V30 15 C 0.9742 -0.471 -2.1384 0
M  V30 16 C 1.222 -1.2131 -4.6374 0
M  V30 17 C 0.4816 -0.6592 -5.865 0
M  V30 18 C -1.8993 -0.0684 -5.9901 0
M  V30 19 C -3.5606 -1.8622 -6.5267 0
M  V30 20 C -1.9529 -3.4452 -7.7431 0
M  V30 21 C 0.1106 -0.1043 0.1215 0
M  V30 22 C 2.1967 0.1244 -1.7576 0
M  V30 23 C -3.0197 -4.1888 -8.5363 0
M  V30 24 C 1.3369 0.4865 0.4954 0
M  V30 25 C 2.3733 0.6064 -0.4499 0
M  V30 26 C 1.5036 1.0055 1.9326 0
M  V30 27 O 3.5305 1.1942 -0.0039 0
M  V30 28 C 1.228 -0.1001 2.9458 0
M  V30 29 C 0.6667 2.2928 2.1016 0
M  V30 30 C 4.5278 1.5003 -0.9701 0
M  V30 31 N 1.9575 -1.268 2.8682 0
M  V30 32 C 0.3856 -0.2217 4.0494 0
M  V30 33 C 1.0563 3.2228 3.2843 0
M  V30 34 C 1.6255 -2.1287 3.8824 0
M  V30 35 C 0.6432 -1.5024 4.6435 0
M  V30 36 C -0.6092 0.7834 4.5515 0
M  V30 37 C -0.0227 4.2885 3.4729 0
M  V30 38 C 1.3168 2.533 4.6369 0
M  V30 39 C 2.1197 -3.4049 4.1774 0
M  V30 40 C 0.1294 -2.1874 5.7649 0
M  V30 41 C 0.0046 2.0173 5.2789 0
M  V30 42 C 0.0979 5.5814 3.1074 0
M  V30 43 C -1.2866 3.7982 4.155 0
M  V30 44 C 2.1382 3.4136 5.5775 0
M  V30 45 C 1.593 -4.0622 5.2922 0
M  V30 46 C 0.6117 -3.4638 6.0775 0
M  V30 47 N -1.0531 3.0563 5.402 0
M  V30 48 C 1.2528 6.2434 2.4259 0
M  V30 49 O 2.6559 4.4834 5.283 0
M  V30 50 O 2.3007 2.8005 6.7873 0
M  V30 51 C -0.8558 3.9627 6.531 0
M  V30 52 C 3.0998 3.5356 7.7144 0
M  V30 53 H -1.1102 -6.5192 -3.5246 0
M  V30 54 H -1.5193 -5.6637 -2.024 0
M  V30 55 H -2.7972 -6.0495 -3.2348 0
M  V30 56 H -0.4935 -3.1129 -5.4929 0
M  V30 57 H -4.0374 -1.7821 -3.8963 0
M  V30 58 H -3.0792 -0.383 -3.454 0
M  V30 59 H -1.9713 -1.4109 -1.3178 0
M  V30 60 H -2.9153 -3.8083 -5.872 0
M  V30 61 H -4.0451 0.0564 -5.6319 0
M  V30 62 H 2.1939 -0.7091 -4.5756 0
M  V30 63 H 1.4516 -2.276 -4.7818 0
M  V30 64 H 0.5171 0.4379 -5.8314 0
M  V30 65 H 1.0808 -0.9286 -6.7442 0
M  V30 66 H -2.0018 0.4566 -6.9465 0
M  V30 67 H -1.6155 0.6763 -5.2355 0
M  V30 68 H -3.6218 -1.4879 -7.5556 0
M  V30 69 H -4.5405 -2.2932 -6.2885 0
M  V30 70 H -1.1087 -4.1264 -7.5822 0
M  V30 71 H -1.5775 -2.6107 -8.3467 0
M  V30 72 H -0.7002 -0.206 0.8383 0
M  V30 73 H 2.9826 0.1908 -2.499 0
M  V30 74 H -3.4024 -5.0443 -7.9708 0
M  V30 75 H -2.5966 -4.5653 -9.4729 0
M  V30 76 H -3.8623 -3.5382 -8.7879 0
M  V30 77 H 2.5525 1.2869 2.0935 0
M  V30 78 H 0.7904 2.9025 1.1925 0
M  V30 79 H -0.3998 2.0495 2.1054 0
M  V30 80 H 4.9614 0.5864 -1.3883 0
M  V30 81 H 5.329 2.0445 -0.4609 0
M  V30 82 H 4.1332 2.1506 -1.7579 0
M  V30 83 H 2.642 -1.4657 2.1508 0
M  V30 84 H 2.001 3.691 2.9857 0
M  V30 85 H -1.3022 0.2944 5.2499 0
M  V30 86 H -1.2502 1.0682 3.7125 0
M  V30 87 H 2.0172 1.7069 4.4814 0
M  V30 88 H 2.8844 -3.8718 3.5657 0
M  V30 89 H -0.6365 -1.7334 6.3863 0
M  V30 90 H 0.233 1.6489 6.2883 0
M  V30 91 H -0.7289 6.259 3.3184 0
M  V30 92 H -1.9791 4.6288 4.3474 0
M  V30 93 H -1.8352 3.1584 3.4547 0
M  V30 94 H 1.9555 -5.0548 5.5486 0
M  V30 95 H 0.2139 -3.9905 6.9411 0
M  V30 96 H 0.8859 6.8253 1.5741 0
M  V30 97 H 1.7481 6.9309 3.1182 0
M  V30 98 H 1.9964 5.5443 2.0397 0
M  V30 99 H -1.762 4.5566 6.6971 0
M  V30 100 H -0.0262 4.6606 6.3889 0
M  V30 101 H -0.6853 3.4029 7.4571 0
M  V30 102 H 3.1464 2.9663 8.6468 0
M  V30 103 H 4.1176 3.6564 7.3309 0
M  V30 104 H 2.6453 4.5086 7.9258 0
M  V30 END ATOM
M  V30 BEGIN BOND
M  V30 1 2 1 2
M  V30 2 1 2 3
M  V30 3 1 2 4
M  V30 4 1 3 5
M  V30 5 1 4 6
M  V30 6 1 4 7
M  V30 7 1 4 8
M  V30 8 1 6 9
M  V30 9 2 6 10
M  V30 10 1 7 11
M  V30 11 1 7 12
M  V30 12 1 8 13
M  V30 13 1 9 14
M  V30 14 1 10 15
M  V30 15 1 10 16
M  V30 16 1 11 17
M  V30 17 1 11 18
M  V30 18 1 12 19
M  V30 19 1 12 20
M  V30 20 1 14 21
M  V30 21 1 15 22
M  V30 22 1 20 23
M  V30 23 2 21 24
M  V30 24 2 22 25
M  V30 25 1 24 26
M  V30 26 1 25 27
M  V30 27 1 26 28
M  V30 28 1 26 29
M  V30 29 1 27 30
M  V30 30 1 28 31
M  V30 31 2 28 32
M  V30 32 1 29 33
M  V30 33 1 31 34
M  V30 34 1 32 35
M  V30 35 1 32 36
M  V30 36 1 33 37
M  V30 37 1 33 38
M  V30 38 1 34 39
M  V30 39 1 35 40
M  V30 40 1 36 41
M  V30 41 2 37 42
M  V30 42 1 37 43
M  V30 43 1 38 44
M  V30 44 2 39 45
M  V30 45 2 40 46
M  V30 46 1 41 47
M  V30 47 1 42 48
M  V30 48 2 44 49
M  V30 49 1 44 50
M  V30 50 1 47 51
M  V30 51 1 50 52
M  V30 52 1 13 18
M  V30 53 1 13 19
M  V30 54 2 14 15
M  V30 55 1 16 17
M  V30 56 1 24 25
M  V30 57 2 34 35
M  V30 58 1 38 41
M  V30 59 1 43 47
M  V30 60 1 45 46
M  V30 61 1 5 53
M  V30 62 1 5 54
M  V30 63 1 5 55
M  V30 64 1 7 56
M  V30 65 1 8 57
M  V30 66 1 8 58
M  V30 67 1 9 59
M  V30 68 1 12 60
M  V30 69 1 13 61
M  V30 70 1 16 62
M  V30 71 1 16 63
M  V30 72 1 17 64
M  V30 73 1 17 65
M  V30 74 1 18 66
M  V30 75 1 18 67
M  V30 76 1 19 68
M  V30 77 1 19 69
M  V30 78 1 20 70
M  V30 79 1 20 71
M  V30 80 1 21 72
M  V30 81 1 22 73
M  V30 82 1 23 74
M  V30 83 1 23 75
M  V30 84 1 23 76
M  V30 85 1 26 77
M  V30 86 1 29 78
M  V30 87 1 29 79
M  V30 88 1 30 80
M  V30 89 1 30 81
M  V30 90 1 30 82
M  V30 91 1 31 83
M  V30 92 1 33 84
M  V30 93 1 36 85
M  V30 94 1 36 86
M  V30 95 1 38 87
M  V30 96 1 39 88
M  V30 97 1 40 89
M  V30 98 1 41 90
M  V30 99 1 42 91
M  V30 100 1 43 92
M  V30 101 1 43 93
M  V30 102 1 45 94
M  V30 103 1 46 95
M  V30 104 1 48 96
M  V30 105 1 48 97
M  V30 106 1 48 98
M  V30 107 1 51 99
M  V30 108 1 51 100
M  V30 109 1 51 101
M  V30 110 1 52 102
M  V30 111 1 52 103
M  V30 112 1 52 104
M  V30 END BOND
M  V30 END CTAB
M  END
>  <level_0>
5580

>  <index>
5580

>  <NO.>
5581

>  <Name>
vocamine

>  <SMILES>
C/C=C1/CN(C)C2Cc3c([nH]c4ccccc34)C(c3cc4[nH]c5c(c4cc3OC)CCN3CC4CC(CC)C3C5(C(=O)OC)C4)CC1C2C(=O)OC

>  <logBB>


>  <Class>
-1

>  <MW>
704.39

>  <nHBAcc>
7

>  <nHBDon>
2

>  <SLogP>
6.49

>  <TopoPSA>
99.89

>  <MMFF94 Energy>
163.34

$$$$
C1CCC(C(CC2CCCCN2)C2CCCCC2)CC1
Actelion Java MolfileCreator 2.0

  0  0  0  0  0  0              0 V3000
M  V30 BEGIN CTAB
M  V30 COUNTS 55 57 0 0 0
M  V30 BEGIN ATOM
M  V30 1 N 0.3156 1.3421 2.5275 0
M  V30 2 C 0.7196 1.7656 1.1793 0 CFG=2
M  V30 3 C 1.2063 1.891 3.5509 0
M  V30 4 C 0.7115 3.3023 1.0729 0
M  V30 5 C -0.2265 1.1625 0.1173 0
M  V30 6 C 1.2262 3.4172 3.526 0
M  V30 7 C 1.5964 3.9384 2.1419 0
M  V30 8 C -0.3515 -0.3882 0.1059 0
M  V30 9 C -1.5077 -0.8784 -0.8361 0
M  V30 10 C 1.0182 -1.1075 -0.1268 0
M  V30 11 C -2.8545 -0.8733 -0.0778 0
M  V30 12 C -1.6708 -0.0867 -2.1502 0
M  V30 13 C 0.9608 -2.6041 0.2481 0
M  V30 14 C 1.6031 -0.9454 -1.5373 0
M  V30 15 C -3.993 -1.4266 -0.934 0
M  V30 16 C -2.7925 -0.6625 -3.0146 0
M  V30 17 C 2.337 -3.2607 0.137 0
M  V30 18 C 2.9824 -1.5964 -1.6474 0
M  V30 19 C -4.1178 -0.6873 -2.261 0
M  V30 20 C 2.9421 -3.0687 -1.2498 0
M  V30 21 H -0.637 1.66 2.7072 0
M  V30 22 H 1.7405 1.4187 0.9824 0
M  V30 23 H 2.2192 1.4939 3.4132 0
M  V30 24 H 0.8678 1.5477 4.5346 0
M  V30 25 H 1.0633 3.6117 0.0815 0
M  V30 26 H -0.3127 3.6832 1.1803 0
M  V30 27 H 0.1093 1.5097 -0.8671 0
M  V30 28 H -1.2263 1.5909 0.2692 0
M  V30 29 H 1.9415 3.7919 4.2667 0
M  V30 30 H 0.2391 3.8035 3.8098 0
M  V30 31 H 1.4972 5.029 2.1118 0
M  V30 32 H 2.6472 3.7045 1.932 0
M  V30 33 H -0.6471 -0.6792 1.1238 0
M  V30 34 H -1.3156 -1.9221 -1.1084 0
M  V30 35 H 1.7386 -0.6655 0.5724 0
M  V30 36 H -3.1051 0.1457 0.2412 0
M  V30 37 H -2.7741 -1.4817 0.831 0
M  V30 38 H -0.7444 -0.0898 -2.7298 0
M  V30 39 H -1.9102 0.9625 -1.9402 0
M  V30 40 H 0.5933 -2.7186 1.2747 0
M  V30 41 H 0.2657 -3.1448 -0.4028 0
M  V30 42 H 0.945 -1.4156 -2.276 0
M  V30 43 H 1.6914 0.1138 -1.7995 0
M  V30 44 H -3.8175 -2.4923 -1.126 0
M  V30 45 H -4.937 -1.3543 -0.382 0
M  V30 46 H -2.528 -1.679 -3.3304 0
M  V30 47 H -2.9 -0.0623 -3.9251 0
M  V30 48 H 2.2531 -4.3309 0.3574 0
M  V30 49 H 3.0081 -2.8315 0.8912 0
M  V30 50 H 3.6915 -1.0618 -1.0035 0
M  V30 51 H 3.3516 -1.5035 -2.675 0
M  V30 52 H -4.4507 0.3412 -2.0748 0
M  V30 53 H -4.8863 -1.1644 -2.8794 0
M  V30 54 H 2.351 -3.6282 -1.9852 0
M  V30 55 H 3.9554 -3.4849 -1.2714 0
M  V30 END ATOM
M  V30 BEGIN BOND
M  V30 1 1 1 2
M  V30 2 1 1 3
M  V30 3 1 2 4
M  V30 4 1 2 5
M  V30 5 1 3 6
M  V30 6 1 4 7
M  V30 7 1 5 8
M  V30 8 1 8 9
M  V30 9 1 8 10
M  V30 10 1 9 11
M  V30 11 1 9 12
M  V30 12 1 10 13
M  V30 13 1 10 14
M  V30 14 1 11 15
M  V30 15 1 12 16
M  V30 16 1 13 17
M  V30 17 1 14 18
M  V30 18 1 15 19
M  V30 19 1 17 20
M  V30 20 1 6 7
M  V30 21 1 16 19
M  V30 22 1 18 20
M  V30 23 1 1 21
M  V30 24 1 2 22
M  V30 25 1 3 23
M  V30 26 1 3 24
M  V30 27 1 4 25
M  V30 28 1 4 26
M  V30 29 1 5 27
M  V30 30 1 5 28
M  V30 31 1 6 29
M  V30 32 1 6 30
M  V30 33 1 7 31
M  V30 34 1 7 32
M  V30 35 1 8 33
M  V30 36 1 9 34
M  V30 37 1 10 35
M  V30 38 1 11 36
M  V30 39 1 11 37
M  V30 40 1 12 38
M  V30 41 1 12 39
M  V30 42 1 13 40
M  V30 43 1 13 41
M  V30 44 1 14 42
M  V30 45 1 14 43
M  V30 46 1 15 44
M  V30 47 1 15 45
M  V30 48 1 16 46
M  V30 49 1 16 47
M  V30 50 1 17 48
M  V30 51 1 17 49
M  V30 52 1 18 50
M  V30 53 1 18 51
M  V30 54 1 19 52
M  V30 55 1 19 53
M  V30 56 1 20 54
M  V30 57 1 20 55
M  V30 END BOND
M  V30 BEGIN COLLECTION
M  V30 MDLV30/STERAC1 ATOMS=(1 2)
M  V30 END COLLECTION
M  V30 END CTAB
M  END
>  <level_0>
5581

>  <index>
5581

>  <NO.>
5582

>  <Name>
perhexiline

>  <SMILES>
C1CCC(C(CC2CCCCN2)C2CCCCC2)CC1

>  <logBB>


>  <Class>
-1

>  <MW>
277.28

>  <nHBAcc>
1

>  <nHBDon>
1

>  <SLogP>
5.3

>  <TopoPSA>
12.03

>  <MMFF94 Energy>
19.615

$$$$
C=C1/C(=C/C=C2\CCCC3(C)C2CCC3C(C)/C=C/C(C)C(C)C)CC(O)CC1O
Actelion Java MolfileCreator 2.0

  0  0  0  0  0  0              0 V3000
M  V30 BEGIN CTAB
M  V30 COUNTS 74 76 0 0 0
M  V30 BEGIN ATOM
M  V30 1 O -3.791 -1.4203 -5.3738 0
M  V30 2 C -2.8463 -1.4242 -6.4413 0
M  V30 3 C -1.8161 -0.348 -6.1702 0
M  V30 4 C -2.1989 -2.8028 -6.5618 0
M  V30 5 C -0.8709 -0.6197 -5.0778 0
M  V30 6 C -1.732 0.7634 -6.9221 0
M  V30 7 C -1.2965 -3.1002 -5.3629 0
M  V30 8 C -0.658 0.296 -4.1092 0
M  V30 9 C -0.2486 -1.9968 -5.1564 0
M  V30 10 O -0.6499 -4.359 -5.5699 0
M  V30 11 C 0.2529 0.1805 -2.9882 0
M  V30 12 C 0.3964 1.0453 -1.9608 0
M  V30 13 C 1.4269 0.7547 -0.8812 0
M  V30 14 C -0.4187 2.2985 -1.7508 0
M  V30 15 C 0.975 1.0003 0.5947 0
M  V30 16 C 2.7162 1.5574 -1.0128 0
M  V30 17 C -1.0185 2.333 -0.3482 0
M  V30 18 C 2.331 1.2829 1.369 0
M  V30 19 C 0.0764 2.2636 0.7109 0
M  V30 20 C 0.1787 -0.2322 1.0606 0
M  V30 21 C 3.426 1.2021 0.2835 0
M  V30 22 C 2.666 0.4454 2.6322 0
M  V30 23 C 1.709 0.7464 3.7663 0
M  V30 24 C 4.0852 0.7298 3.1479 0
M  V30 25 C 1.0629 -0.1949 4.4741 0
M  V30 26 C 0.1128 0.1102 5.6127 0
M  V30 27 C -1.3612 -0.1744 5.2104 0
M  V30 28 C 0.5755 -0.6378 6.8671 0
M  V30 29 C -1.6661 -1.6514 4.9383 0
M  V30 30 C -2.344 0.3647 6.2562 0
M  V30 31 H -4.4677 -2.0857 -5.5807 0
M  V30 32 H -3.4009 -1.2075 -7.3621 0
M  V30 33 H -2.9662 -3.584 -6.6298 0
M  V30 34 H -1.6138 -2.8651 -7.4887 0
M  V30 35 H -2.4269 0.9512 -7.7344 0
M  V30 36 H -0.9726 1.5189 -6.7434 0
M  V30 37 H -1.9062 -3.201 -4.457 0
M  V30 38 H -1.2196 1.2249 -4.1727 0
M  V30 39 H 0.4712 -2.0129 -5.9863 0
M  V30 40 H 0.337 -2.2536 -4.2686 0
M  V30 41 H -0.0535 -4.2695 -6.3329 0
M  V30 42 H 0.9029 -0.691 -2.998 0
M  V30 43 H 1.7143 -0.306 -0.9605 0
M  V30 44 H 0.2271 3.1725 -1.9008 0
M  V30 45 H -1.2388 2.3969 -2.4662 0
M  V30 46 H 2.5282 2.6357 -1.0707 0
M  V30 47 H 3.3032 1.2636 -1.8888 0
M  V30 48 H -1.5829 3.2644 -0.2203 0
M  V30 49 H -1.7339 1.5127 -0.2178 0
M  V30 50 H 2.3249 2.3346 1.6938 0
M  V30 51 H -0.3752 2.3126 1.7096 0
M  V30 52 H 0.6844 3.1726 0.6089 0
M  V30 53 H -0.2909 -0.0708 2.0334 0
M  V30 54 H 0.8122 -1.1228 1.1228 0
M  V30 55 H -0.6307 -0.4727 0.3623 0
M  V30 56 H 4.2559 1.8875 0.4835 0
M  V30 57 H 3.8322 0.1851 0.2172 0
M  V30 58 H 2.6258 -0.6205 2.3772 0
M  V30 59 H 1.5624 1.7964 4.0152 0
M  V30 60 H 4.2801 0.192 4.0833 0
M  V30 61 H 4.8436 0.4024 2.4298 0
M  V30 62 H 4.2364 1.7987 3.3378 0
M  V30 63 H 1.2188 -1.2438 4.2285 0
M  V30 64 H 0.1847 1.1832 5.8412 0
M  V30 65 H -1.5613 0.3741 4.2792 0
M  V30 66 H -0.0512 -0.3958 7.7306 0
M  V30 67 H 1.6033 -0.3569 7.126 0
M  V30 68 H 0.5599 -1.7238 6.7276 0
M  V30 69 H -1.0229 -2.0578 4.1523 0
M  V30 70 H -2.7022 -1.7707 4.6017 0
M  V30 71 H -1.541 -2.2639 5.8367 0
M  V30 72 H -2.1492 1.4212 6.468 0
M  V30 73 H -2.284 -0.191 7.1971 0
M  V30 74 H -3.3739 0.2853 5.8911 0
M  V30 END ATOM
M  V30 BEGIN BOND
M  V30 1 1 1 2
M  V30 2 1 2 3
M  V30 3 1 2 4
M  V30 4 1 3 5
M  V30 5 2 3 6
M  V30 6 1 4 7
M  V30 7 2 5 8
M  V30 8 1 5 9
M  V30 9 1 7 10
M  V30 10 1 8 11
M  V30 11 2 11 12
M  V30 12 1 12 13
M  V30 13 1 12 14
M  V30 14 1 13 15
M  V30 15 1 13 16
M  V30 16 1 14 17
M  V30 17 1 15 18
M  V30 18 1 15 19
M  V30 19 1 15 20
M  V30 20 1 16 21
M  V30 21 1 18 22
M  V30 22 1 22 23
M  V30 23 1 22 24
M  V30 24 2 23 25
M  V30 25 1 25 26
M  V30 26 1 26 27
M  V30 27 1 26 28
M  V30 28 1 27 29
M  V30 29 1 27 30
M  V30 30 1 7 9
M  V30 31 1 17 19
M  V30 32 1 18 21
M  V30 33 1 1 31
M  V30 34 1 2 32
M  V30 35 1 4 33
M  V30 36 1 4 34
M  V30 37 1 6 35
M  V30 38 1 6 36
M  V30 39 1 7 37
M  V30 40 1 8 38
M  V30 41 1 9 39
M  V30 42 1 9 40
M  V30 43 1 10 41
M  V30 44 1 11 42
M  V30 45 1 13 43
M  V30 46 1 14 44
M  V30 47 1 14 45
M  V30 48 1 16 46
M  V30 49 1 16 47
M  V30 50 1 17 48
M  V30 51 1 17 49
M  V30 52 1 18 50
M  V30 53 1 19 51
M  V30 54 1 19 52
M  V30 55 1 20 53
M  V30 56 1 20 54
M  V30 57 1 20 55
M  V30 58 1 21 56
M  V30 59 1 21 57
M  V30 60 1 22 58
M  V30 61 1 23 59
M  V30 62 1 24 60
M  V30 63 1 24 61
M  V30 64 1 24 62
M  V30 65 1 25 63
M  V30 66 1 26 64
M  V30 67 1 27 65
M  V30 68 1 28 66
M  V30 69 1 28 67
M  V30 70 1 28 68
M  V30 71 1 29 69
M  V30 72 1 29 70
M  V30 73 1 29 71
M  V30 74 1 30 72
M  V30 75 1 30 73
M  V30 76 1 30 74
M  V30 END BOND
M  V30 END CTAB
M  END
>  <level_0>
5582

>  <index>
5582

>  <NO.>
5583

>  <Name>
doxercalciferol

>  <SMILES>
C=C1/C(=C/C=C2\CCCC3(C)C2CCC3C(C)/C=C/C(C)C(C)C)CC(O)CC1O

>  <logBB>


>  <Class>
-1

>  <MW>
412.33

>  <nHBAcc>
2

>  <nHBDon>
2

>  <SLogP>
6.61

>  <TopoPSA>
40.46

>  <MMFF94 Energy>
91.297

$$$$
C=C1/C(=C/C=C2\CCCC3(C)C2CCC3C(C)/C=C/C(O)C2CC2)CC(O)CC1O
Actelion Java MolfileCreator 2.0

  0  0  0  0  0  0              0 V3000
M  V30 BEGIN CTAB
M  V30 COUNTS 70 73 0 0 0
M  V30 BEGIN ATOM
M  V30 1 O 5.8811 5.6421 1.5074 0
M  V30 2 C 4.4997 5.3096 1.3787 0
M  V30 3 C 4.2522 3.8497 1.7235 0
M  V30 4 C 3.6779 6.2381 2.2726 0
M  V30 5 C 2.8331 3.4663 1.7623 0
M  V30 6 C 5.2234 2.9664 2.0142 0
M  V30 7 C 2.1999 5.8582 2.2468 0
M  V30 8 C 2.3848 2.4157 1.044 0
M  V30 9 C 2.0026 4.3855 2.6322 0
M  V30 10 O 1.4998 6.708 3.1544 0
M  V30 11 C 1.025 1.9191 0.9832 0
M  V30 12 C 0.5646 0.8943 0.235 0
M  V30 13 C -0.904 0.5072 0.3139 0
M  V30 14 C 1.3907 0.0352 -0.6954 0
M  V30 15 C -1.171 -1.0124 0.5044 0
M  V30 16 C -1.716 0.8899 -0.9359 0
M  V30 17 C 1.1943 -1.4486 -0.4003 0
M  V30 18 C -2.6963 -1.0629 0.1769 0
M  V30 19 C -0.2811 -1.8485 -0.4466 0
M  V30 20 C -0.9146 -1.4379 1.9618 0
M  V30 21 C -2.8467 -0.1387 -1.0441 0
M  V30 22 C -3.405 -2.4406 0.081 0
M  V30 23 C -2.9831 -3.321 -1.0716 0
M  V30 24 C -4.9275 -2.2529 -0.001 0
M  V30 25 C -2.5096 -4.5711 -0.9214 0
M  V30 26 C -2.0404 -5.5069 -2.0005 0
M  V30 27 O -0.7366 -5.9264 -1.6067 0
M  V30 28 C -2.0264 -4.9718 -3.4094 0
M  V30 29 C -0.9125 -4.0779 -3.902 0
M  V30 30 C -1.0723 -5.4584 -4.478 0
M  V30 31 H 5.9688 6.5888 1.308 0
M  V30 32 H 4.2269 5.4695 0.3279 0
M  V30 33 H 3.8046 7.2816 1.9563 0
M  V30 34 H 4.0598 6.2161 3.303 0
M  V30 35 H 6.2692 3.2591 2.0009 0
M  V30 36 H 5.0066 1.9381 2.2842 0
M  V30 37 H 1.7929 6.041 1.2445 0
M  V30 38 H 3.1157 1.8783 0.4444 0
M  V30 39 H 0.9326 4.1617 2.5926 0
M  V30 40 H 2.2829 4.2388 3.6845 0
M  V30 41 H 0.5596 6.46 3.1259 0
M  V30 42 H 0.3048 2.4313 1.616 0
M  V30 43 H -1.3671 1.0354 1.1618 0
M  V30 44 H 2.46 0.251 -0.6361 0
M  V30 45 H 1.0982 0.245 -1.7312 0
M  V30 46 H -2.1182 1.9048 -0.8372 0
M  V30 47 H -1.1167 0.8753 -1.8526 0
M  V30 48 H 1.7485 -2.0398 -1.1391 0
M  V30 49 H 1.6232 -1.6955 0.578 0
M  V30 50 H -3.2016 -0.5382 1.005 0
M  V30 51 H -0.6225 -1.7482 -1.4835 0
M  V30 52 H -0.3483 -2.9114 -0.192 0
M  V30 53 H -1.1079 -2.5068 2.1011 0
M  V30 54 H -1.5636 -0.8924 2.6562 0
M  V30 55 H 0.1178 -1.244 2.2688 0
M  V30 56 H -3.8248 0.3545 -1.0495 0
M  V30 57 H -2.7516 -0.6785 -1.991 0
M  V30 58 H -3.2076 -2.9703 1.0224 0
M  V30 59 H -3.0796 -2.9017 -2.0694 0
M  V30 60 H -5.4432 -3.2196 0.0327 0
M  V30 61 H -5.2929 -1.6574 0.8426 0
M  V30 62 H -5.2273 -1.7484 -0.9263 0
M  V30 63 H -2.421 -4.9768 0.085 0
M  V30 64 H -2.6869 -6.3923 -1.9755 0
M  V30 65 H -0.5193 -6.6955 -2.1556 0
M  V30 66 H -3.0351 -4.7417 -3.7406 0
M  V30 67 H -0.0717 -3.8939 -3.2414 0
M  V30 68 H -1.1812 -3.2295 -4.5203 0
M  V30 69 H -0.3075 -6.1865 -4.2406 0
M  V30 70 H -1.449 -5.5397 -5.4921 0
M  V30 END ATOM
M  V30 BEGIN BOND
M  V30 1 1 1 2
M  V30 2 1 2 3
M  V30 3 1 2 4
M  V30 4 1 3 5
M  V30 5 2 3 6
M  V30 6 1 4 7
M  V30 7 2 5 8
M  V30 8 1 5 9
M  V30 9 1 7 10
M  V30 10 1 8 11
M  V30 11 2 11 12
M  V30 12 1 12 13
M  V30 13 1 12 14
M  V30 14 1 13 15
M  V30 15 1 13 16
M  V30 16 1 14 17
M  V30 17 1 15 18
M  V30 18 1 15 19
M  V30 19 1 15 20
M  V30 20 1 16 21
M  V30 21 1 18 22
M  V30 22 1 22 23
M  V30 23 1 22 24
M  V30 24 2 23 25
M  V30 25 1 25 26
M  V30 26 1 26 27
M  V30 27 1 26 28
M  V30 28 1 28 29
M  V30 29 1 28 30
M  V30 30 1 7 9
M  V30 31 1 17 19
M  V30 32 1 18 21
M  V30 33 1 29 30
M  V30 34 1 1 31
M  V30 35 1 2 32
M  V30 36 1 4 33
M  V30 37 1 4 34
M  V30 38 1 6 35
M  V30 39 1 6 36
M  V30 40 1 7 37
M  V30 41 1 8 38
M  V30 42 1 9 39
M  V30 43 1 9 40
M  V30 44 1 10 41
M  V30 45 1 11 42
M  V30 46 1 13 43
M  V30 47 1 14 44
M  V30 48 1 14 45
M  V30 49 1 16 46
M  V30 50 1 16 47
M  V30 51 1 17 48
M  V30 52 1 17 49
M  V30 53 1 18 50
M  V30 54 1 19 51
M  V30 55 1 19 52
M  V30 56 1 20 53
M  V30 57 1 20 54
M  V30 58 1 20 55
M  V30 59 1 21 56
M  V30 60 1 21 57
M  V30 61 1 22 58
M  V30 62 1 23 59
M  V30 63 1 24 60
M  V30 64 1 24 61
M  V30 65 1 24 62
M  V30 66 1 25 63
M  V30 67 1 26 64
M  V30 68 1 27 65
M  V30 69 1 28 66
M  V30 70 1 29 67
M  V30 71 1 29 68
M  V30 72 1 30 69
M  V30 73 1 30 70
M  V30 END BOND
M  V30 END CTAB
M  END
>  <level_0>
5583

>  <index>
5583

>  <NO.>
5584

>  <Name>
calcipotriol

>  <SMILES>
C=C1/C(=C/C=C2\CCCC3(C)C2CCC3C(C)/C=C/C(O)C2CC2)CC(O)CC1O

>  <logBB>


>  <Class>
-1

>  <MW>
412.3

>  <nHBAcc>
3

>  <nHBDon>
3

>  <SLogP>
5.09

>  <TopoPSA>
60.69

>  <MMFF94 Energy>
85.601

$$$$
C=C1/C(=C/C=C2\CCCC3(C)C2CCC3C(C)CCCC(C)(C)O)CC(O)C(OCCCO)C1O
Actelion Java MolfileCreator 2.0

  0  0  0  0  0  0              0 V3000
M  V30 BEGIN CTAB
M  V30 COUNTS 85 87 0 0 0
M  V30 BEGIN ATOM
M  V30 1 O -6.7993 1.8939 0.2365 0
M  V30 2 C -5.7316 1.8224 1.198 0
M  V30 3 C -7.7412 0.8274 0.3476 0
M  V30 4 C -5.0962 3.2283 1.3372 0
M  V30 5 C -4.6521 0.7976 0.783 0
M  V30 6 C -8.7768 0.9945 -0.7577 0
M  V30 7 O -4.6149 3.7426 0.0901 0
M  V30 8 C -3.9346 3.1945 2.3118 0
M  V30 9 O -4.1541 1.1069 -0.5297 0
M  V30 10 C -3.4988 0.7828 1.8025 0
M  V30 11 C -9.917 -0.0031 -0.6379 0
M  V30 12 C -2.9188 2.1615 2.0621 0
M  V30 13 C -3.8682 4.021 3.3703 0
M  V30 14 O -9.414 -1.3313 -0.6691 0
M  V30 15 C -1.6088 2.4856 2.0281 0
M  V30 16 C -0.4934 1.5821 1.8304 0
M  V30 17 C 0.7967 1.9197 1.6231 0
M  V30 18 C 1.8451 0.8264 1.4668 0
M  V30 19 C 1.3245 3.3322 1.491 0
M  V30 20 C 2.7647 0.9906 0.2329 0
M  V30 21 C 2.8049 0.7234 2.6588 0
M  V30 22 C 2.1662 3.5059 0.2288 0
M  V30 23 C 3.9765 0.0582 0.5687 0
M  V30 24 C 3.2791 2.4626 0.1366 0
M  V30 25 C 2.0182 0.6588 -1.0662 0
M  V30 26 C 4.1354 0.2147 2.1024 0
M  V30 27 C 4.0012 -1.455 0.1729 0
M  V30 28 C 4.2066 -1.6683 -1.3451 0
M  V30 29 C 2.8404 -2.2955 0.7137 0
M  V30 30 C 4.7655 -3.0583 -1.6872 0
M  V30 31 C 5.0335 -3.186 -3.1906 0
M  V30 32 C 5.5876 -4.5493 -3.6524 0
M  V30 33 O 5.7984 -4.4674 -5.0684 0
M  V30 34 C 4.6082 -5.6966 -3.3963 0
M  V30 35 C 6.9472 -4.8637 -3.0271 0
M  V30 36 H -6.1507 1.5377 2.1733 0
M  V30 37 H -8.2238 0.8781 1.3302 0
M  V30 38 H -7.236 -0.1376 0.2477 0
M  V30 39 H -5.8707 3.93 1.6692 0
M  V30 40 H -5.0861 -0.2049 0.7171 0
M  V30 41 H -8.2726 0.87 -1.7242 0
M  V30 42 H -9.1746 2.0163 -0.7467 0
M  V30 43 H -4.5522 2.9698 -0.5101 0
M  V30 44 H -3.4176 0.5 -0.7196 0
M  V30 45 H -2.7364 0.0897 1.4357 0
M  V30 46 H -3.8655 0.3789 2.7552 0
M  V30 47 H -10.463 0.1397 0.3001 0
M  V30 48 H -10.6151 0.1248 -1.4713 0
M  V30 49 H -4.6303 4.7748 3.5436 0
M  V30 50 H -3.05 3.9784 4.0826 0
M  V30 51 H -10.1838 -1.926 -0.6989 0
M  V30 52 H -1.3509 3.5318 2.179 0
M  V30 53 H -0.7288 0.5224 1.8891 0
M  V30 54 H 1.3311 -0.1396 1.384 0
M  V30 55 H 1.9321 3.5709 2.3719 0
M  V30 56 H 0.5272 4.0796 1.4622 0
M  V30 57 H 2.9615 1.6824 3.1647 0
M  V30 58 H 2.4081 0.0338 3.4129 0
M  V30 59 H 2.6129 4.5075 0.2295 0
M  V30 60 H 1.5239 3.4591 -0.6578 0
M  V30 61 H 4.8777 0.4871 0.1069 0
M  V30 62 H 4.0006 2.674 0.9358 0
M  V30 63 H 3.8279 2.6029 -0.8034 0
M  V30 64 H 1.5756 -0.3388 -1.0462 0
M  V30 65 H 1.1859 1.3463 -1.2482 0
M  V30 66 H 2.6865 0.7266 -1.9309 0
M  V30 67 H 4.9205 0.9501 2.3188 0
M  V30 68 H 4.4434 -0.7106 2.6004 0
M  V30 69 H 4.9067 -1.8566 0.6524 0
M  V30 70 H 4.9039 -0.9122 -1.7263 0
M  V30 71 H 3.2645 -1.5392 -1.8854 0
M  V30 72 H 3.0437 -3.364 0.5887 0
M  V30 73 H 2.6889 -2.1346 1.7849 0
M  V30 74 H 1.9007 -2.0851 0.1984 0
M  V30 75 H 4.0528 -3.8271 -1.3746 0
M  V30 76 H 5.693 -3.2188 -1.1274 0
M  V30 77 H 4.106 -2.9752 -3.7408 0
M  V30 78 H 5.732 -2.3974 -3.5026 0
M  V30 79 H 4.9399 -4.2907 -5.49 0
M  V30 80 H 4.9624 -6.6206 -3.8681 0
M  V30 81 H 3.6295 -5.48 -3.8394 0
M  V30 82 H 4.4701 -5.8912 -2.3285 0
M  V30 83 H 7.3847 -5.7607 -3.481 0
M  V30 84 H 6.8777 -5.0295 -1.9478 0
M  V30 85 H 7.6572 -4.049 -3.2098 0
M  V30 END ATOM
M  V30 BEGIN BOND
M  V30 1 1 1 2
M  V30 2 1 1 3
M  V30 3 1 2 4
M  V30 4 1 2 5
M  V30 5 1 3 6
M  V30 6 1 4 7
M  V30 7 1 4 8
M  V30 8 1 5 9
M  V30 9 1 5 10
M  V30 10 1 6 11
M  V30 11 1 8 12
M  V30 12 2 8 13
M  V30 13 1 11 14
M  V30 14 2 12 15
M  V30 15 1 15 16
M  V30 16 2 16 17
M  V30 17 1 17 18
M  V30 18 1 17 19
M  V30 19 1 18 20
M  V30 20 1 18 21
M  V30 21 1 19 22
M  V30 22 1 20 23
M  V30 23 1 20 24
M  V30 24 1 20 25
M  V30 25 1 21 26
M  V30 26 1 23 27
M  V30 27 1 27 28
M  V30 28 1 27 29
M  V30 29 1 28 30
M  V30 30 1 30 31
M  V30 31 1 31 32
M  V30 32 1 32 33
M  V30 33 1 32 34
M  V30 34 1 32 35
M  V30 35 1 10 12
M  V30 36 1 22 24
M  V30 37 1 23 26
M  V30 38 1 2 36
M  V30 39 1 3 37
M  V30 40 1 3 38
M  V30 41 1 4 39
M  V30 42 1 5 40
M  V30 43 1 6 41
M  V30 44 1 6 42
M  V30 45 1 7 43
M  V30 46 1 9 44
M  V30 47 1 10 45
M  V30 48 1 10 46
M  V30 49 1 11 47
M  V30 50 1 11 48
M  V30 51 1 13 49
M  V30 52 1 13 50
M  V30 53 1 14 51
M  V30 54 1 15 52
M  V30 55 1 16 53
M  V30 56 1 18 54
M  V30 57 1 19 55
M  V30 58 1 19 56
M  V30 59 1 21 57
M  V30 60 1 21 58
M  V30 61 1 22 59
M  V30 62 1 22 60
M  V30 63 1 23 61
M  V30 64 1 24 62
M  V30 65 1 24 63
M  V30 66 1 25 64
M  V30 67 1 25 65
M  V30 68 1 25 66
M  V30 69 1 26 67
M  V30 70 1 26 68
M  V30 71 1 27 69
M  V30 72 1 28 70
M  V30 73 1 28 71
M  V30 74 1 29 72
M  V30 75 1 29 73
M  V30 76 1 29 74
M  V30 77 1 30 75
M  V30 78 1 30 76
M  V30 79 1 31 77
M  V30 80 1 31 78
M  V30 81 1 33 79
M  V30 82 1 34 80
M  V30 83 1 34 81
M  V30 84 1 34 82
M  V30 85 1 35 83
M  V30 86 1 35 84
M  V30 87 1 35 85
M  V30 END BOND
M  V30 END CTAB
M  END
>  <level_0>
5584

>  <index>
5584

>  <NO.>
5585

>  <Name>
eldecalcitol

>  <SMILES>
C=C1/C(=C/C=C2\CCCC3(C)C2CCC3C(C)CCCC(C)(C)O)CC(O)C(OCCCO)C1O

>  <logBB>


>  <Class>
-1

>  <MW>
490.37

>  <nHBAcc>
5

>  <nHBDon>
4

>  <SLogP>
5.08

>  <TopoPSA>
90.15

>  <MMFF94 Energy>
142.54

$$$$
C=C1C(CO)C(O)CC1n1cnc2c(=O)[nH]c(N)nc21
Actelion Java MolfileCreator 2.0

  0  0  0  0  0  0              0 V3000
M  V30 BEGIN CTAB
M  V30 COUNTS 35 37 0 0 0
M  V30 BEGIN ATOM
M  V30 1 O -2.0647 4.6901 -1.8263 0
M  V30 2 C -1.9052 3.4732 -1.8397 0
M  V30 3 N -2.5025 2.6699 -2.8017 0
M  V30 4 C -1.1121 2.7078 -0.9044 0
M  V30 5 C -2.3688 1.2977 -2.8713 0
M  V30 6 N -0.3667 3.1121 0.1713 0
M  V30 7 C -1.057 1.3431 -1.0758 0
M  V30 8 N -1.6587 0.5931 -2.0314 0
M  V30 9 N -3.0246 0.682 -3.8786 0
M  V30 10 C 0.1498 1.995 0.6463 0
M  V30 11 N -0.2528 0.8905 -0.064 0
M  V30 12 C 0.0947 -0.5023 0.1764 0
M  V30 13 C 0.1251 -0.9071 1.64 0
M  V30 14 C 1.4802 -0.883 -0.3625 0
M  V30 15 C -0.8908 -0.7719 2.5064 0
M  V30 16 C 1.4877 -1.4621 2.0016 0
M  V30 17 C 2.3864 -0.9516 0.8632 0
M  V30 18 C 1.4687 -2.9929 2.0756 0
M  V30 19 O 2.8694 0.3591 1.1524 0
M  V30 20 O 2.7673 -3.471 2.4086 0
M  V30 21 H -3.0627 3.1627 -3.4743 0
M  V30 22 H -2.9379 -0.3237 -3.9489 0
M  V30 23 H -3.5855 1.1642 -4.5628 0
M  V30 24 H 0.8144 1.9288 1.4982 0
M  V30 25 H -0.6598 -1.1132 -0.3351 0
M  V30 26 H 1.849 -0.1767 -1.1143 0
M  V30 27 H 1.4232 -1.8751 -0.8274 0
M  V30 28 H -1.8448 -0.3511 2.1983 0
M  V30 29 H -0.7929 -1.0631 3.5481 0
M  V30 30 H 1.8339 -1.0491 2.9574 0
M  V30 31 H 3.2579 -1.586 0.6739 0
M  V30 32 H 1.1678 -3.4452 1.1245 0
M  V30 33 H 0.7743 -3.3319 2.8522 0
M  V30 34 H 3.4991 0.2762 1.891 0
M  V30 35 H 2.6974 -4.436 2.5181 0
M  V30 END ATOM
M  V30 BEGIN BOND
M  V30 1 2 1 2
M  V30 2 1 2 3
M  V30 3 1 2 4
M  V30 4 1 3 5
M  V30 5 1 4 6
M  V30 6 2 4 7
M  V30 7 2 5 8
M  V30 8 1 5 9
M  V30 9 2 6 10
M  V30 10 1 7 11
M  V30 11 1 11 12
M  V30 12 1 12 13
M  V30 13 1 12 14
M  V30 14 2 13 15
M  V30 15 1 13 16
M  V30 16 1 14 17
M  V30 17 1 16 18
M  V30 18 1 17 19
M  V30 19 1 18 20
M  V30 20 1 7 8
M  V30 21 1 10 11
M  V30 22 1 16 17
M  V30 23 1 3 21
M  V30 24 1 9 22
M  V30 25 1 9 23
M  V30 26 1 10 24
M  V30 27 1 12 25
M  V30 28 1 14 26
M  V30 29 1 14 27
M  V30 30 1 15 28
M  V30 31 1 15 29
M  V30 32 1 16 30
M  V30 33 1 17 31
M  V30 34 1 18 32
M  V30 35 1 18 33
M  V30 36 1 19 34
M  V30 37 1 20 35
M  V30 END BOND
M  V30 END CTAB
M  END
>  <level_0>
5588

>  <index>
5588

>  <NO.>
5589

>  <Name>
entecavir

>  <SMILES>
C=C1C(CO)C(O)CC1n1cnc2c(=O)[nH]c(N)nc21

>  <logBB>


>  <Class>
-1

>  <MW>
277.12

>  <nHBAcc>
6

>  <nHBDon>
4

>  <SLogP>
-0.83

>  <TopoPSA>
130.05

>  <MMFF94 Energy>
-21.79

$$$$
C=C1CCC(O)C/C1=C\C=C1/CCCC2(C)C1CCC2C(C)CCCC(C)(C)O
Actelion Java MolfileCreator 2.0

  0  0  0  0  0  0              0 V3000
M  V30 BEGIN CTAB
M  V30 COUNTS 73 75 0 0 0
M  V30 BEGIN ATOM
M  V30 1 O 5.1351 -4.8976 3.1576 0
M  V30 2 C 5.7016 -4.7808 1.8511 0
M  V30 3 C 4.5902 -4.4387 0.8365 0
M  V30 4 C 6.814 -3.7303 1.8892 0
M  V30 5 C 6.2997 -6.1489 1.5081 0
M  V30 6 C 3.8763 -3.1015 1.0817 0
M  V30 7 C 2.7584 -2.8794 0.0537 0
M  V30 8 C 2.0873 -1.4833 0.1529 0
M  V30 9 C 1.1256 -1.2784 -1.061 0
M  V30 10 C 1.4386 -1.2956 1.5312 0
M  V30 11 C 0.6015 0.1701 -1.3729 0
M  V30 12 C -0.1426 -2.1641 -0.9903 0
M  V30 13 C -0.8476 0.1487 -0.8289 0
M  V30 14 C 0.5899 0.3712 -2.9216 0
M  V30 15 C 1.4321 1.3043 -0.7479 0
M  V30 16 C -1.3488 -1.2509 -1.1928 0
M  V30 17 C -1.7314 1.2722 -1.3524 0
M  V30 18 C -0.2656 1.5536 -3.3769 0
M  V30 19 C -2.4478 2.0147 -0.4816 0
M  V30 20 C -1.697 1.4585 -2.8535 0
M  V30 21 C -3.3247 3.1256 -0.7924 0
M  V30 22 C -4.0923 3.8213 0.0727 0
M  V30 23 C -4.9149 4.9412 -0.3949 0
M  V30 24 C -4.2486 3.5515 1.5576 0
M  V30 25 C -4.4074 5.9673 -1.0965 0
M  V30 26 C -6.3693 4.8815 0.0082 0
M  V30 27 C -5.7216 3.4715 1.9988 0
M  V30 28 C -6.5216 4.6815 1.5171 0
M  V30 29 O -6.349 2.284 1.5088 0
M  V30 30 H 4.9012 -4.0078 3.4704 0
M  V30 31 H 3.831 -5.2318 0.8674 0
M  V30 32 H 5.011 -4.4377 -0.1771 0
M  V30 33 H 7.6088 -4.0335 2.5807 0
M  V30 34 H 6.4473 -2.7678 2.2609 0
M  V30 35 H 7.2573 -3.5783 0.8999 0
M  V30 36 H 7.0526 -6.4434 2.2484 0
M  V30 37 H 6.7683 -6.1485 0.5186 0
M  V30 38 H 5.5291 -6.9282 1.5275 0
M  V30 39 H 4.5924 -2.2759 1.0128 0
M  V30 40 H 3.4547 -3.0935 2.0916 0
M  V30 41 H 3.1859 -2.9957 -0.9503 0
M  V30 42 H 2.0041 -3.6676 0.1674 0
M  V30 43 H 2.8933 -0.7446 0.0625 0
M  V30 44 H 1.701 -1.6032 -1.9401 0
M  V30 45 H 2.2072 -1.1938 2.3048 0
M  V30 46 H 0.811 -2.1479 1.8089 0
M  V30 47 H 0.8249 -0.3962 1.5886 0
M  V30 48 H -0.2376 -2.689 -0.0361 0
M  V30 49 H -0.1181 -2.9375 -1.7666 0
M  V30 50 H -0.8094 0.2045 0.2666 0
M  V30 51 H 1.6159 0.5076 -3.2866 0
M  V30 52 H 0.2139 -0.5307 -3.4218 0
M  V30 53 H 2.4658 1.2771 -1.1094 0
M  V30 54 H 1.0266 2.2911 -0.9925 0
M  V30 55 H 1.4568 1.2523 0.3427 0
M  V30 56 H -1.6888 -1.3182 -2.2318 0
M  V30 57 H -2.191 -1.5558 -0.5618 0
M  V30 58 H -0.2841 1.5815 -4.473 0
M  V30 59 H 0.1873 2.498 -3.0544 0
M  V30 60 H -2.3576 1.7652 0.5722 0
M  V30 61 H -2.2342 2.3508 -3.1836 0
M  V30 62 H -2.2052 0.6115 -3.3296 0
M  V30 63 H -3.3606 3.4273 -1.8362 0
M  V30 64 H -3.7551 4.3646 2.1064 0
M  V30 65 H -3.7526 2.6241 1.8561 0
M  V30 66 H -3.3553 6.0154 -1.3603 0
M  V30 67 H -5.0326 6.7927 -1.4218 0
M  V30 68 H -6.8977 5.7974 -0.2831 0
M  V30 69 H -6.8558 4.0578 -0.5297 0
M  V30 70 H -5.7661 3.4209 3.0925 0
M  V30 71 H -7.5845 4.5478 1.7502 0
M  V30 72 H -6.1777 5.5812 2.0425 0
M  V30 73 H -5.7001 1.5611 1.5432 0
M  V30 END ATOM
M  V30 BEGIN BOND
M  V30 1 1 1 2
M  V30 2 1 2 3
M  V30 3 1 2 4
M  V30 4 1 2 5
M  V30 5 1 3 6
M  V30 6 1 6 7
M  V30 7 1 7 8
M  V30 8 1 8 9
M  V30 9 1 8 10
M  V30 10 1 9 11
M  V30 11 1 9 12
M  V30 12 1 11 13
M  V30 13 1 11 14
M  V30 14 1 11 15
M  V30 15 1 12 16
M  V30 16 1 13 17
M  V30 17 1 14 18
M  V30 18 2 17 19
M  V30 19 1 17 20
M  V30 20 1 19 21
M  V30 21 2 21 22
M  V30 22 1 22 23
M  V30 23 1 22 24
M  V30 24 2 23 25
M  V30 25 1 23 26
M  V30 26 1 24 27
M  V30 27 1 26 28
M  V30 28 1 27 29
M  V30 29 1 13 16
M  V30 30 1 18 20
M  V30 31 1 27 28
M  V30 32 1 1 30
M  V30 33 1 3 31
M  V30 34 1 3 32
M  V30 35 1 4 33
M  V30 36 1 4 34
M  V30 37 1 4 35
M  V30 38 1 5 36
M  V30 39 1 5 37
M  V30 40 1 5 38
M  V30 41 1 6 39
M  V30 42 1 6 40
M  V30 43 1 7 41
M  V30 44 1 7 42
M  V30 45 1 8 43
M  V30 46 1 9 44
M  V30 47 1 10 45
M  V30 48 1 10 46
M  V30 49 1 10 47
M  V30 50 1 12 48
M  V30 51 1 12 49
M  V30 52 1 13 50
M  V30 53 1 14 51
M  V30 54 1 14 52
M  V30 55 1 15 53
M  V30 56 1 15 54
M  V30 57 1 15 55
M  V30 58 1 16 56
M  V30 59 1 16 57
M  V30 60 1 18 58
M  V30 61 1 18 59
M  V30 62 1 19 60
M  V30 63 1 20 61
M  V30 64 1 20 62
M  V30 65 1 21 63
M  V30 66 1 24 64
M  V30 67 1 24 65
M  V30 68 1 25 66
M  V30 69 1 25 67
M  V30 70 1 26 68
M  V30 71 1 26 69
M  V30 72 1 27 70
M  V30 73 1 28 71
M  V30 74 1 28 72
M  V30 75 1 29 73
M  V30 END BOND
M  V30 END CTAB
M  END
>  <level_0>
5591

>  <index>
5591

>  <NO.>
5592

>  <Name>
calcidiol

>  <SMILES>
C=C1CCC(O)C/C1=C\C=C1/CCCC2(C)C1CCC2C(C)CCCC(C)(C)O

>  <logBB>


>  <Class>
-1

>  <MW>
400.33

>  <nHBAcc>
2

>  <nHBDon>
2

>  <SLogP>
6.73

>  <TopoPSA>
40.46

>  <MMFF94 Energy>
86.748

$$$$
C=C1C[C@@H]2CC[C@@]34C[C@H]5O[C@H]6[C@@H](O3)[C@H]3OC(CC[C@@H]3O[C@H]6[C@H]5O4)CC(=O)C[C@H]3[C@H](C[C@H]4O[C@@H](CC[C@@H]1O2)C[C@@H](C)C4=C)O[C@H](C[C@H](O)CN)[C@@H]3OC
Actelion Java MolfileCreator 2.0

  0  0  0  0  0  0              0 V3000
M  V30 BEGIN CTAB
M  V30 COUNTS 111 119 0 0 0
M  V30 BEGIN ATOM
M  V30 1 O 4.3617 0.8066 1.9367 0
M  V30 2 C 3.4701 0.1911 1.3457 0
M  V30 3 C 3.4658 0.1016 -0.1653 0
M  V30 4 C 2.3234 -0.4228 2.122 0
M  V30 5 C 2.884 1.3887 -0.7431 0
M  V30 6 C 1.054 0.4376 2.0863 0 CFG=2
M  V30 7 O 1.5824 1.0944 -1.2746 0
M  V30 8 C 3.757 1.9872 -1.8492 0
M  V30 9 C 1.231 1.8129 2.7346 0 CFG=1
M  V30 10 C -0.0608 -0.2198 2.9267 0 CFG=1
M  V30 11 C 0.9084 2.2864 -1.6901 0 CFG=2
M  V30 12 C 3.1125 3.2639 -2.3889 0
M  V30 13 O 0.3426 2.7136 2.0555 0
M  V30 14 C 0.8093 1.5417 4.1822 0 CFG=2
M  V30 15 O -0.2594 0.5899 4.1048 0
M  V30 16 C -1.4093 -0.3328 2.1987 0
M  V30 17 C -0.5515 2.0209 -2.1161 0 CFG=2
M  V30 18 C 1.6662 3.0006 -2.8175 0 CFG=2
M  V30 19 C 0.8617 4.0341 1.9497 0
M  V30 20 C 0.361 2.7506 4.9951 0
M  V30 21 C -1.5741 -1.6545 1.4248 0 CFG=1
M  V30 22 O -0.6329 1.0092 -3.1369 0
M  V30 23 C -1.1666 3.4067 -2.3814 0 CFG=2
M  V30 24 O 1.054 4.2534 -3.1502 0
M  V30 25 C -0.2128 2.4044 6.3714 0 CFG=2
M  V30 26 O -0.3992 -1.8259 0.6196 0
M  V30 27 C -1.8051 -2.918 2.2593 0
M  V30 28 C -0.9162 1.3124 -4.4962 0 CFG=1
M  V30 29 O -2.4744 3.3221 -2.9559 0
M  V30 30 C -0.352 4.2117 -3.382 0 CFG=1
M  V30 31 O -0.4829 3.6376 7.0574 0
M  V30 32 C 0.7273 1.5627 7.254 0
M  V30 33 C -0.4855 -2.9283 -0.295 0 CFG=1
M  V30 34 C -1.9813 -2.9257 3.5943 0
M  V30 35 C -1.8375 -4.183 1.4078 0 CFG=1
M  V30 36 O -0.1256 2.3969 -4.9853 0
M  V30 37 C -0.5436 0.082 -5.3441 0
M  V30 38 C -2.3543 1.757 -4.7319 0
M  V30 39 C -2.2777 3.2185 -4.3779 0 CFG=2
M  V30 40 C -0.8286 3.6096 -4.6931 0 CFG=1
M  V30 41 N 0.1855 1.4786 8.6208 0
M  V30 42 C 0.7693 -2.8731 -1.1732 0
M  V30 43 C -0.5825 -4.2163 0.5245 0
M  V30 44 C -1.9677 -5.5129 2.159 0
M  V30 45 C -1.4726 -1.1324 -5.22 0
M  V30 46 C 0.9314 -3.9692 -2.2348 0
M  V30 47 C -1.2391 -2.0055 -3.9876 0 CFG=2
M  V30 48 C -8.0E-4 -3.9158 -3.4536 0 CFG=2
M  V30 49 O 0.0584 -2.6176 -4.0715 0
M  V30 50 C -2.2437 -3.1496 -3.9256 0
M  V30 51 C -1.456 -4.2187 -3.2523 0
M  V30 52 C -1.9923 -5.2676 -2.6151 0
M  V30 53 H 2.9074 -0.7869 -0.4723 0
M  V30 54 H 4.5084 -0.047 -0.4693 0
M  V30 55 H 2.1316 -1.4197 1.7096 0
M  V30 56 H 2.6642 -0.5798 3.1528 0
M  V30 57 H 2.7696 2.1359 0.0527 0
M  V30 58 H 0.7401 0.5362 1.0436 0
M  V30 59 H 4.7602 2.2115 -1.4706 0
M  V30 60 H 3.8606 1.2685 -2.6715 0
M  V30 61 H 2.256 2.1923 2.6801 0
M  V30 62 H 0.2555 -1.2025 3.2916 0
M  V30 63 H 0.8588 2.9569 -0.8209 0
M  V30 64 H 3.1353 4.0488 -1.6217 0
M  V30 65 H 3.6893 3.6553 -3.2351 0
M  V30 66 H 1.6401 1.0432 4.6968 0
M  V30 67 H -1.4933 0.4994 1.4871 0
M  V30 68 H -2.246 -0.1936 2.8944 0
M  V30 69 H -1.077 1.5687 -1.2661 0
M  V30 70 H 1.7341 2.3627 -3.7028 0
M  V30 71 H 1.0879 4.4559 2.9316 0
M  V30 72 H 0.1066 4.6596 1.4661 0
M  V30 73 H 1.7623 4.038 1.3288 0
M  V30 74 H -0.424 3.2981 4.4584 0
M  V30 75 H 1.197 3.4519 5.1079 0
M  V30 76 H -2.4375 -1.5305 0.7569 0
M  V30 77 H -1.2389 3.9509 -1.432 0
M  V30 78 H -1.173 1.8872 6.2582 0
M  V30 79 H -0.7051 5.2509 -3.3548 0
M  V30 80 H -0.4857 3.388 8.0057 0
M  V30 81 H 0.8562 0.5543 6.8496 0
M  V30 82 H 1.7104 2.0421 7.3142 0
M  V30 83 H -1.3762 -2.7868 -0.9148 0
M  V30 84 H -1.9692 -2.0197 4.1923 0
M  V30 85 H -2.1492 -3.8381 4.1563 0
M  V30 86 H -2.7167 -4.1058 0.7525 0
M  V30 87 H -0.5333 0.3854 -6.4004 0
M  V30 88 H 0.4884 -0.2158 -5.1186 0
M  V30 89 H -2.6198 1.6652 -5.7916 0
M  V30 90 H -3.0728 1.2064 -4.1171 0
M  V30 91 H -3.0294 3.8364 -4.8757 0
M  V30 92 H -0.7167 4.2823 -5.5472 0
M  V30 93 H 0.8223 0.9205 9.1905 0
M  V30 94 H -0.691 0.9543 8.5943 0
M  V30 95 H 0.8302 -1.8851 -1.647 0
M  V30 96 H 1.6466 -2.9151 -0.5129 0
M  V30 97 H 0.3065 -4.3156 1.1621 0
M  V30 98 H -0.614 -5.0953 -0.1234 0
M  V30 99 H -1.9872 -6.352 1.4547 0
M  V30 100 H -2.8989 -5.5531 2.7342 0
M  V30 101 H -1.1284 -5.6738 2.8444 0
M  V30 102 H -2.5216 -0.8222 -5.2676 0
M  V30 103 H -1.2931 -1.7514 -6.1099 0
M  V30 104 H 0.8969 -4.9613 -1.7726 0
M  V30 105 H 1.9546 -3.8587 -2.6205 0
M  V30 106 H -1.2827 -1.4159 -3.0661 0
M  V30 107 H 0.3867 -4.6174 -4.2029 0
M  V30 108 H -2.5202 -3.491 -4.93 0
M  V30 109 H -3.1515 -2.862 -3.387 0
M  V30 110 H -1.3733 -6.0412 -2.1723 0
M  V30 111 H -3.0689 -5.3923 -2.5436 0
M  V30 END ATOM
M  V30 BEGIN BOND
M  V30 1 2 1 2
M  V30 2 1 2 3
M  V30 3 1 2 4
M  V30 4 1 3 5
M  V30 5 1 4 6
M  V30 6 1 5 7
M  V30 7 1 5 8
M  V30 8 1 6 9
M  V30 9 1 6 10
M  V30 10 1 7 11
M  V30 11 1 8 12
M  V30 12 1 9 13
M  V30 13 1 9 14
M  V30 14 1 10 15
M  V30 15 1 10 16
M  V30 16 1 11 17
M  V30 17 1 11 18
M  V30 18 1 13 19
M  V30 19 1 14 20
M  V30 20 1 16 21
M  V30 21 1 17 22
M  V30 22 1 17 23
M  V30 23 1 18 24
M  V30 24 1 20 25
M  V30 25 1 21 26
M  V30 26 1 21 27
M  V30 27 1 22 28
M  V30 28 1 23 29
M  V30 29 1 23 30
M  V30 30 1 25 31
M  V30 31 1 25 32
M  V30 32 1 26 33
M  V30 33 2 27 34
M  V30 34 1 27 35
M  V30 35 1 28 36
M  V30 36 1 28 37
M  V30 37 1 28 38
M  V30 38 1 29 39
M  V30 39 1 30 40
M  V30 40 1 32 41
M  V30 41 1 33 42
M  V30 42 1 33 43
M  V30 43 1 35 44
M  V30 44 1 37 45
M  V30 45 1 42 46
M  V30 46 1 45 47
M  V30 47 1 46 48
M  V30 48 1 47 49
M  V30 49 1 47 50
M  V30 50 1 48 51
M  V30 51 2 51 52
M  V30 52 1 12 18
M  V30 53 1 14 15
M  V30 54 1 24 30
M  V30 55 1 35 43
M  V30 56 1 36 40
M  V30 57 1 38 39
M  V30 58 1 39 40
M  V30 59 1 48 49
M  V30 60 1 50 51
M  V30 61 1 3 53
M  V30 62 1 3 54
M  V30 63 1 4 55
M  V30 64 1 4 56
M  V30 65 1 5 57
M  V30 66 1 6 58
M  V30 67 1 8 59
M  V30 68 1 8 60
M  V30 69 1 9 61
M  V30 70 1 10 62
M  V30 71 1 11 63
M  V30 72 1 12 64
M  V30 73 1 12 65
M  V30 74 1 14 66
M  V30 75 1 16 67
M  V30 76 1 16 68
M  V30 77 1 17 69
M  V30 78 1 18 70
M  V30 79 1 19 71
M  V30 80 1 19 72
M  V30 81 1 19 73
M  V30 82 1 20 74
M  V30 83 1 20 75
M  V30 84 1 21 76
M  V30 85 1 23 77
M  V30 86 1 25 78
M  V30 87 1 30 79
M  V30 88 1 31 80
M  V30 89 1 32 81
M  V30 90 1 32 82
M  V30 91 1 33 83
M  V30 92 1 34 84
M  V30 93 1 34 85
M  V30 94 1 35 86
M  V30 95 1 37 87
M  V30 96 1 37 88
M  V30 97 1 38 89
M  V30 98 1 38 90
M  V30 99 1 39 91
M  V30 100 1 40 92
M  V30 101 1 41 93
M  V30 102 1 41 94
M  V30 103 1 42 95
M  V30 104 1 42 96
M  V30 105 1 43 97
M  V30 106 1 43 98
M  V30 107 1 44 99
M  V30 108 1 44 100
M  V30 109 1 44 101
M  V30 110 1 45 102
M  V30 111 1 45 103
M  V30 112 1 46 104
M  V30 113 1 46 105
M  V30 114 1 47 106
M  V30 115 1 48 107
M  V30 116 1 50 108
M  V30 117 1 50 109
M  V30 118 1 52 110
M  V30 119 1 52 111
M  V30 END BOND
M  V30 BEGIN COLLECTION
M  V30 MDLV30/STEABS ATOMS=(18 6 9 10 11 14 17 18 21 23 25 28 30 33 35 39 40 47 48)
M  V30 END COLLECTION
M  V30 END CTAB
M  END
>  <level_0>
5593

>  <index>
5593

>  <NO.>
5594

>  <Name>
eribulin

>  <SMILES>
C=C1C[C@@H]2CC[C@@]34C[C@H]5O[C@H]6[C@@H](O3)[C@H]3OC(CC[C@@H]3O[C@H]6[C@H]5O4)CC(=O)C[C@H]3[C@H](C[C@H]4O[C@@H](CC[C@@H]1O2)C[C@@H](C)C4=C)O[C@H](C[C@H](O)CN)[C@@H]3OC

>  <logBB>


>  <Class>
-1

>  <MW>
729.41

>  <nHBAcc>
12

>  <nHBDon>
2

>  <SLogP>
3.44

>  <TopoPSA>
146.39

>  <MMFF94 Energy>
219.69

$$$$
C=CC1(C)CC(OC(=O)CSC2CC3CCC(C2)N3C)C2(C)C(C)CCC3(CCC(=O)C32)C(C)C1O
Actelion Java MolfileCreator 2.0

  0  0  0  0  0  0              0 V3000
M  V30 BEGIN CTAB
M  V30 COUNTS 83 87 0 0 0
M  V30 BEGIN ATOM
M  V30 1 S -1.3725 2.423 1.5341 0
M  V30 2 C -1.1773 1.6786 3.2059 0
M  V30 3 C -2.1302 1.0454 0.6221 0
M  V30 4 C -0.4159 2.6654 4.1126 0
M  V30 5 C -2.5163 1.251 3.8317 0
M  V30 6 C -1.2563 -0.1871 0.6022 0
M  V30 7 C -0.4887 2.2599 5.5993 0
M  V30 8 C -2.3878 0.983 5.3463 0
M  V30 9 O -1.3212 -1.0842 1.4336 0
M  V30 10 O -0.3976 -0.1603 -0.4617 0
M  V30 11 N -1.9195 2.2415 5.9518 0
M  V30 12 C -0.0183 0.8193 5.8281 0
M  V30 13 C -1.2807 -0.0297 5.6592 0
M  V30 14 C 0.5337 -1.244 -0.5916 0
M  V30 15 C -2.1479 2.2961 7.3941 0
M  V30 16 C 1.9923 -0.7886 -1.0664 0
M  V30 17 C -0.093 -2.428 -1.3718 0
M  V30 18 C 2.3939 0.6442 -0.572 0
M  V30 19 C 2.1691 -0.8463 -2.6158 0
M  V30 20 C 2.9666 -1.8278 -0.4203 0
M  V30 21 C -1.0976 -2.2371 -2.5624 0
M  V30 22 C 1.6476 1.769 -1.3089 0
M  V30 23 C 2.309 0.8451 0.9457 0
M  V30 24 C 3.5904 -0.7267 -3.1904 0
M  V30 25 C 1.4423 0.2662 -3.4271 0
M  V30 26 C -1.3516 -3.6845 -3.0556 0
M  V30 27 C -0.536 -1.4349 -3.8047 0
M  V30 28 C -2.4331 -1.6174 -2.0798 0
M  V30 29 C 1.7906 1.6655 -2.823 0
M  V30 30 O 4.6129 -1.1423 -2.6618 0
M  V30 31 C 3.6051 -0.0849 -4.5522 0
M  V30 32 C -0.1167 0.0603 -3.5625 0
M  V30 33 C 2.1258 0.1557 -4.8192 0
M  V30 34 C -2.4096 -4.4731 -2.8161 0
M  V30 35 O -1.4726 -1.5088 -4.8955 0
M  V30 36 C -0.7327 1.0047 -4.6212 0
M  V30 37 H -0.5415 0.7959 3.0828 0
M  V30 38 H -2.3158 1.3686 -0.4075 0
M  V30 39 H -3.1085 0.7892 1.0396 0
M  V30 40 H 0.6351 2.7175 3.8004 0
M  V30 41 H -0.828 3.6793 4.0111 0
M  V30 42 H -2.8873 0.3424 3.3434 0
M  V30 43 H -3.2761 2.0291 3.6764 0
M  V30 44 H 0.0865 2.9797 6.1925 0
M  V30 45 H -3.3613 0.661 5.7334 0
M  V30 46 H 0.37 0.6966 6.8462 0
M  V30 47 H 0.7738 0.5166 5.1356 0
M  V30 48 H -1.1632 -0.7853 4.8755 0
M  V30 49 H -1.4933 -0.5577 6.5964 0
M  V30 50 H 0.6936 -1.628 0.4249 0
M  V30 51 H -1.6737 1.4808 7.95 0
M  V30 52 H -1.7733 3.2434 7.7974 0
M  V30 53 H -3.2228 2.2689 7.6046 0
M  V30 54 H 0.7098 -3.1144 -1.6709 0
M  V30 55 H -0.6457 -3.0044 -0.6114 0
M  V30 56 H 3.4571 0.7834 -0.8188 0
M  V30 57 H 1.8853 -1.8425 -2.9643 0
M  V30 58 H 4.0049 -1.4844 -0.4319 0
M  V30 59 H 2.7341 -2.0107 0.6349 0
M  V30 60 H 2.9199 -2.7942 -0.9335 0
M  V30 61 H 2.0622 2.7362 -0.9945 0
M  V30 62 H 0.5913 1.815 -1.0408 0
M  V30 63 H 1.3016 0.6908 1.3321 0
M  V30 64 H 2.6133 1.8624 1.2163 0
M  V30 65 H 2.9792 0.1612 1.475 0
M  V30 66 H -0.5551 -4.1115 -3.6682 0
M  V30 67 H 0.3224 -1.9842 -4.1989 0
M  V30 68 H -2.7486 -2.0404 -1.119 0
M  V30 69 H -2.3754 -0.5345 -1.9608 0
M  V30 70 H -3.251 -1.7953 -2.7878 0
M  V30 71 H 2.8288 1.9332 -3.0552 0
M  V30 72 H 1.1988 2.4591 -3.2884 0
M  V30 73 H 4.04 -0.759 -5.2939 0
M  V30 74 H 4.1723 0.8485 -4.5108 0
M  V30 75 H -0.5642 0.3951 -2.6302 0
M  V30 76 H 1.7261 -0.6908 -5.3898 0
M  V30 77 H 1.9853 1.053 -5.4319 0
M  V30 78 H -3.2524 -4.1656 -2.2072 0
M  V30 79 H -2.4485 -5.4767 -3.231 0
M  V30 80 H -2.3503 -1.242 -4.5786 0
M  V30 81 H -0.4249 0.737 -5.637 0
M  V30 82 H -0.4621 2.0496 -4.4538 0
M  V30 83 H -1.8272 0.967 -4.5783 0
M  V30 END ATOM
M  V30 BEGIN BOND
M  V30 1 1 1 2
M  V30 2 1 1 3
M  V30 3 1 2 4
M  V30 4 1 2 5
M  V30 5 1 3 6
M  V30 6 1 4 7
M  V30 7 1 5 8
M  V30 8 2 6 9
M  V30 9 1 6 10
M  V30 10 1 7 11
M  V30 11 1 7 12
M  V30 12 1 8 13
M  V30 13 1 10 14
M  V30 14 1 11 15
M  V30 15 1 14 16
M  V30 16 1 14 17
M  V30 17 1 16 18
M  V30 18 1 16 19
M  V30 19 1 16 20
M  V30 20 1 17 21
M  V30 21 1 18 22
M  V30 22 1 18 23
M  V30 23 1 19 24
M  V30 24 1 19 25
M  V30 25 1 21 26
M  V30 26 1 21 27
M  V30 27 1 21 28
M  V30 28 1 22 29
M  V30 29 2 24 30
M  V30 30 1 24 31
M  V30 31 1 25 32
M  V30 32 1 25 33
M  V30 33 2 26 34
M  V30 34 1 27 35
M  V30 35 1 32 36
M  V30 36 1 8 11
M  V30 37 1 12 13
M  V30 38 1 25 29
M  V30 39 1 27 32
M  V30 40 1 31 33
M  V30 41 1 2 37
M  V30 42 1 3 38
M  V30 43 1 3 39
M  V30 44 1 4 40
M  V30 45 1 4 41
M  V30 46 1 5 42
M  V30 47 1 5 43
M  V30 48 1 7 44
M  V30 49 1 8 45
M  V30 50 1 12 46
M  V30 51 1 12 47
M  V30 52 1 13 48
M  V30 53 1 13 49
M  V30 54 1 14 50
M  V30 55 1 15 51
M  V30 56 1 15 52
M  V30 57 1 15 53
M  V30 58 1 17 54
M  V30 59 1 17 55
M  V30 60 1 18 56
M  V30 61 1 19 57
M  V30 62 1 20 58
M  V30 63 1 20 59
M  V30 64 1 20 60
M  V30 65 1 22 61
M  V30 66 1 22 62
M  V30 67 1 23 63
M  V30 68 1 23 64
M  V30 69 1 23 65
M  V30 70 1 26 66
M  V30 71 1 27 67
M  V30 72 1 28 68
M  V30 73 1 28 69
M  V30 74 1 28 70
M  V30 75 1 29 71
M  V30 76 1 29 72
M  V30 77 1 31 73
M  V30 78 1 31 74
M  V30 79 1 32 75
M  V30 80 1 33 76
M  V30 81 1 33 77
M  V30 82 1 34 78
M  V30 83 1 34 79
M  V30 84 1 35 80
M  V30 85 1 36 81
M  V30 86 1 36 82
M  V30 87 1 36 83
M  V30 END BOND
M  V30 END CTAB
M  END
>  <level_0>
5594

>  <index>
5594

>  <NO.>
5595

>  <Name>
224452-66-8

>  <SMILES>
C=CC1(C)CC(OC(=O)CSC2CC3CCC(C2)N3C)C2(C)C(C)CCC3(CCC(=O)C32)C(C)C1O

>  <logBB>


>  <Class>
-1

>  <MW>
517.32

>  <nHBAcc>
6

>  <nHBDon>
1

>  <SLogP>
5.25

>  <TopoPSA>
66.84

>  <MMFF94 Energy>
163.91

$$$$
C=CCC1(O)CCC2C3CCC4=CCCCC4C3CCC21C
Actelion Java MolfileCreator 2.0

  0  0  0  0  0  0              0 V3000
M  V30 BEGIN CTAB
M  V30 COUNTS 54 57 0 0 0
M  V30 BEGIN ATOM
M  V30 1 O -0.2396 -2.8787 -3.0388 0
M  V30 2 C -1.1181 -2.0057 -2.3108 0
M  V30 3 C -0.3106 -0.7522 -1.8232 0
M  V30 4 C -1.5253 -2.6962 -0.9935 0
M  V30 5 C -2.3433 -1.7621 -3.2445 0
M  V30 6 C -1.1182 -0.2958 -0.5877 0
M  V30 7 C 1.1355 -1.1498 -1.4013 0
M  V30 8 C -0.2173 0.351 -2.8914 0
M  V30 9 C -1.5531 -1.6093 0.0865 0
M  V30 10 C -3.5394 -1.0297 -2.6991 0
M  V30 11 C -0.3809 0.7075 0.3233 0
M  V30 12 C 1.8471 -0.1103 -0.535 0
M  V30 13 C -4.0633 0.0723 -3.2512 0
M  V30 14 C 1.0393 0.245 0.7237 0
M  V30 15 C -1.2107 1.0516 1.5711 0
M  V30 16 C 1.7604 1.3189 1.5954 0
M  V30 17 C -0.5365 2.1433 2.3945 0
M  V30 18 C 0.8777 1.7677 2.7531 0
M  V30 19 C 3.1389 0.8049 2.0719 0
M  V30 20 C 1.3238 1.8574 4.0193 0
M  V30 21 C 3.6954 1.6266 3.229 0
M  V30 22 C 2.7437 1.5983 4.4208 0
M  V30 23 H -0.6936 -3.7308 -3.1565 0
M  V30 24 H -0.8015 -3.4725 -0.7148 0
M  V30 25 H -2.492 -3.2065 -1.0675 0
M  V30 26 H -2.7105 -2.7452 -3.5744 0
M  V30 27 H -1.9944 -1.2903 -4.1727 0
M  V30 28 H -2.0301 0.213 -0.9242 0
M  V30 29 H 1.1269 -2.0929 -0.8406 0
M  V30 30 H 1.7462 -1.3386 -2.2936 0
M  V30 31 H -1.199 0.7537 -3.1539 0
M  V30 32 H 0.2446 -0.0321 -3.8079 0
M  V30 33 H 0.3802 1.2027 -2.5528 0
M  V30 34 H -2.5576 -1.5087 0.5129 0
M  V30 35 H -0.8877 -1.899 0.9061 0
M  V30 36 H -4.023 -1.4471 -1.8186 0
M  V30 37 H -0.2713 1.6365 -0.2557 0
M  V30 38 H 2.8221 -0.5248 -0.2554 0
M  V30 39 H 2.053 0.7941 -1.1187 0
M  V30 40 H -3.6362 0.5248 -4.1411 0
M  V30 41 H -4.939 0.5482 -2.8198 0
M  V30 42 H 0.9486 -0.6667 1.3307 0
M  V30 43 H -1.3516 0.1618 2.1972 0
M  V30 44 H -2.209 1.3941 1.2729 0
M  V30 45 H 1.9357 2.209 0.9737 0
M  V30 46 H -0.5163 3.0776 1.8192 0
M  V30 47 H -1.1382 2.3388 3.2902 0
M  V30 48 H 3.0641 -0.2444 2.3864 0
M  V30 49 H 3.8547 0.838 1.2424 0
M  V30 50 H 0.6498 2.1657 4.8155 0
M  V30 51 H 3.8507 2.6624 2.9005 0
M  V30 52 H 4.6748 1.2376 3.5298 0
M  V30 53 H 3.0604 2.3562 5.1465 0
M  V30 54 H 2.7954 0.6263 4.9252 0
M  V30 END ATOM
M  V30 BEGIN BOND
M  V30 1 1 1 2
M  V30 2 1 2 3
M  V30 3 1 2 4
M  V30 4 1 2 5
M  V30 5 1 3 6
M  V30 6 1 3 7
M  V30 7 1 3 8
M  V30 8 1 4 9
M  V30 9 1 5 10
M  V30 10 1 6 11
M  V30 11 1 7 12
M  V30 12 2 10 13
M  V30 13 1 11 14
M  V30 14 1 11 15
M  V30 15 1 14 16
M  V30 16 1 15 17
M  V30 17 1 16 18
M  V30 18 1 16 19
M  V30 19 2 18 20
M  V30 20 1 19 21
M  V30 21 1 20 22
M  V30 22 1 6 9
M  V30 23 1 12 14
M  V30 24 1 17 18
M  V30 25 1 21 22
M  V30 26 1 1 23
M  V30 27 1 4 24
M  V30 28 1 4 25
M  V30 29 1 5 26
M  V30 30 1 5 27
M  V30 31 1 6 28
M  V30 32 1 7 29
M  V30 33 1 7 30
M  V30 34 1 8 31
M  V30 35 1 8 32
M  V30 36 1 8 33
M  V30 37 1 9 34
M  V30 38 1 9 35
M  V30 39 1 10 36
M  V30 40 1 11 37
M  V30 41 1 12 38
M  V30 42 1 12 39
M  V30 43 1 13 40
M  V30 44 1 13 41
M  V30 45 1 14 42
M  V30 46 1 15 43
M  V30 47 1 15 44
M  V30 48 1 16 45
M  V30 49 1 17 46
M  V30 50 1 17 47
M  V30 51 1 19 48
M  V30 52 1 19 49
M  V30 53 1 20 50
M  V30 54 1 21 51
M  V30 55 1 21 52
M  V30 56 1 22 53
M  V30 57 1 22 54
M  V30 END BOND
M  V30 END CTAB
M  END
>  <level_0>
5597

>  <index>
5597

>  <NO.>
5598

>  <Name>
mcule-5010058438

>  <SMILES>
C=CCC1(O)CCC2C3CCC4=CCCCC4C3CCC21C

>  <logBB>


>  <Class>
-1

>  <MW>
300.25

>  <nHBAcc>
1

>  <nHBDon>
1

>  <SLogP>
5.26

>  <TopoPSA>
20.23

>  <MMFF94 Energy>
85.186

$$$$
CC(/C=C/C(C)C(C)(C)O)C1CCC2/C(=C/C=C3CC(O)CC(O)C3)CCCC21C
Actelion Java MolfileCreator 2.0

  0  0  0  0  0  0              0 V3000
M  V30 BEGIN CTAB
M  V30 COUNTS 74 76 0 0 0
M  V30 BEGIN ATOM
M  V30 1 O 2.133 -7.5208 1.1845 0
M  V30 2 C 0.8673 -6.8445 1.2676 0
M  V30 3 C 1.1476 -5.3076 1.2711 0
M  V30 4 C 0.0591 -7.256 0.0277 0
M  V30 5 C 0.1605 -7.3453 2.5335 0
M  V30 6 C -0.1073 -4.4573 1.2725 0
M  V30 7 C 2.0432 -4.8654 2.4379 0
M  V30 8 C -0.4605 -3.6456 0.2614 0
M  V30 9 C -1.7139 -2.7996 0.2568 0
M  V30 10 C -1.5098 -1.2659 0.4155 0
M  V30 11 C -2.5602 -3.174 -0.9611 0
M  V30 12 C -0.8641 -0.3792 -0.697 0
M  V30 13 C -0.7183 -0.9026 1.691 0
M  V30 14 C -0.6534 0.9483 0.0925 0
M  V30 15 C 0.4814 -0.9197 -1.2314 0
M  V30 16 C -1.8297 -0.1217 -1.8714 0
M  V30 17 C -0.178 0.5121 1.4842 0
M  V30 18 C 0.2708 1.9527 -0.5806 0
M  V30 19 C 1.3006 0.1364 -1.9746 0
M  V30 20 C -0.1082 3.2445 -0.68 0
M  V30 21 C 1.5613 1.365 -1.1066 0
M  V30 22 C 0.6313 4.3277 -1.2935 0
M  V30 23 C 0.2762 5.6281 -1.3431 0
M  V30 24 C -0.9626 6.2494 -0.7323 0
M  V30 25 C 1.1725 6.6374 -2.0458 0
M  V30 26 C -0.6007 7.426 0.1883 0
M  V30 27 C 1.5027 7.8515 -1.1642 0
M  V30 28 O 0.1314 6.9593 1.3279 0
M  V30 29 C 0.2478 8.472 -0.54 0
M  V30 30 O 2.4296 7.4747 -0.1445 0
M  V30 31 H 1.962 -8.478 1.1651 0
M  V30 32 H 1.7252 -5.0885 0.3608 0
M  V30 33 H -0.9516 -6.8363 0.035 0
M  V30 34 H 0.5652 -6.934 -0.8895 0
M  V30 35 H -0.0279 -8.347 -0.0373 0
M  V30 36 H -0.8161 -6.8733 2.6759 0
M  V30 37 H 0.0054 -8.4299 2.4852 0
M  V30 38 H 0.7701 -7.1723 3.4264 0
M  V30 39 H -0.7342 -4.5084 2.1608 0
M  V30 40 H 2.9773 -5.4356 2.4611 0
M  V30 41 H 2.3102 -3.8065 2.3384 0
M  V30 42 H 1.5456 -4.9861 3.4061 0
M  V30 43 H 0.1714 -3.6084 -0.6223 0
M  V30 44 H -2.3115 -3.0992 1.1315 0
M  V30 45 H -2.5236 -0.8625 0.5758 0
M  V30 46 H -2.8904 -4.2175 -0.8921 0
M  V30 47 H -3.4587 -2.5515 -1.0246 0
M  V30 48 H -1.9994 -3.0789 -1.8958 0
M  V30 49 H -1.3622 -0.9551 2.5761 0
M  V30 50 H 0.1246 -1.578 1.8671 0
M  V30 51 H -1.643 1.4111 0.2316 0
M  V30 52 H 0.3066 -1.7604 -1.9123 0
M  V30 53 H 1.0971 -1.3016 -0.4083 0
M  V30 54 H -1.9118 -0.9885 -2.5313 0
M  V30 55 H -2.8361 0.1233 -1.5138 0
M  V30 56 H -1.4993 0.7178 -2.4922 0
M  V30 57 H 0.9136 0.5059 1.5759 0
M  V30 58 H -0.5558 1.194 2.2548 0
M  V30 59 H 2.2594 -0.3013 -2.2769 0
M  V30 60 H 0.7894 0.4316 -2.8986 0
M  V30 61 H -1.0745 3.5086 -0.259 0
M  V30 62 H 2.1424 2.0766 -1.6979 0
M  V30 63 H 2.1989 1.086 -0.2591 0
M  V30 64 H 1.5718 4.056 -1.7667 0
M  V30 65 H -1.543 5.5254 -0.155 0
M  V30 66 H -1.611 6.6045 -1.5429 0
M  V30 67 H 0.6521 6.9799 -2.9492 0
M  V30 68 H 2.1084 6.1661 -2.3699 0
M  V30 69 H -1.5167 7.8969 0.5622 0
M  V30 70 H 2.0094 8.6059 -1.7762 0
M  V30 71 H -0.3664 6.216 1.7135 0
M  V30 72 H -0.3539 8.9447 -1.3253 0
M  V30 73 H 0.5508 9.2479 0.1734 0
M  V30 74 H 1.8994 7.0764 0.5791 0
M  V30 END ATOM
M  V30 BEGIN BOND
M  V30 1 1 1 2
M  V30 2 1 2 3
M  V30 3 1 2 4
M  V30 4 1 2 5
M  V30 5 1 3 6
M  V30 6 1 3 7
M  V30 7 2 6 8
M  V30 8 1 8 9
M  V30 9 1 9 10
M  V30 10 1 9 11
M  V30 11 1 10 12
M  V30 12 1 10 13
M  V30 13 1 12 14
M  V30 14 1 12 15
M  V30 15 1 12 16
M  V30 16 1 13 17
M  V30 17 1 14 18
M  V30 18 1 15 19
M  V30 19 2 18 20
M  V30 20 1 18 21
M  V30 21 1 20 22
M  V30 22 2 22 23
M  V30 23 1 23 24
M  V30 24 1 23 25
M  V30 25 1 24 26
M  V30 26 1 25 27
M  V30 27 1 26 28
M  V30 28 1 26 29
M  V30 29 1 27 30
M  V30 30 1 14 17
M  V30 31 1 19 21
M  V30 32 1 27 29
M  V30 33 1 1 31
M  V30 34 1 3 32
M  V30 35 1 4 33
M  V30 36 1 4 34
M  V30 37 1 4 35
M  V30 38 1 5 36
M  V30 39 1 5 37
M  V30 40 1 5 38
M  V30 41 1 6 39
M  V30 42 1 7 40
M  V30 43 1 7 41
M  V30 44 1 7 42
M  V30 45 1 8 43
M  V30 46 1 9 44
M  V30 47 1 10 45
M  V30 48 1 11 46
M  V30 49 1 11 47
M  V30 50 1 11 48
M  V30 51 1 13 49
M  V30 52 1 13 50
M  V30 53 1 14 51
M  V30 54 1 15 52
M  V30 55 1 15 53
M  V30 56 1 16 54
M  V30 57 1 16 55
M  V30 58 1 16 56
M  V30 59 1 17 57
M  V30 60 1 17 58
M  V30 61 1 19 59
M  V30 62 1 19 60
M  V30 63 1 20 61
M  V30 64 1 21 62
M  V30 65 1 21 63
M  V30 66 1 22 64
M  V30 67 1 24 65
M  V30 68 1 24 66
M  V30 69 1 25 67
M  V30 70 1 25 68
M  V30 71 1 26 69
M  V30 72 1 27 70
M  V30 73 1 28 71
M  V30 74 1 29 72
M  V30 75 1 29 73
M  V30 76 1 30 74
M  V30 END BOND
M  V30 END CTAB
M  END
>  <level_0>
5603

>  <index>
5603

>  <NO.>
5604

>  <Name>
paricalcitol

>  <SMILES>
CC(/C=C/C(C)C(C)(C)O)C1CCC2/C(=C/C=C3CC(O)CC(O)C3)CCCC21C

>  <logBB>


>  <Class>
-1

>  <MW>
416.33

>  <nHBAcc>
3

>  <nHBDon>
3

>  <SLogP>
5.56

>  <TopoPSA>
60.69

>  <MMFF94 Energy>
109.54

$$$$
CC(=O)N(O)CCCCCNC(=O)CCC(=O)N(O)CCCCCNC(=O)CCC(=O)N(O)CCCCCN
Actelion Java MolfileCreator 2.0

  0  0  0  0  0  0              0 V3000
M  V30 BEGIN CTAB
M  V30 COUNTS 87 86 0 0 0
M  V30 BEGIN ATOM
M  V30 1 O -0.6991 -2.4877 1.2432 0
M  V30 2 C -0.4236 -3.2251 0.295 0
M  V30 3 N 0.5254 -4.216 0.385 0
M  V30 4 C -1.1199 -3.1081 -1.0455 0
M  V30 5 O 0.9728 -4.8645 -0.7781 0
M  V30 6 C 1.419 -4.3763 1.5244 0
M  V30 7 C -2.1364 -1.974 -1.0483 0
M  V30 8 C 2.5754 -3.3801 1.4613 0
M  V30 9 C -2.8779 -1.8889 -2.3631 0
M  V30 10 C 3.3813 -3.359 2.759 0
M  V30 11 O -2.7592 -2.7141 -3.2617 0
M  V30 12 N -3.7154 -0.7976 -2.4354 0
M  V30 13 C 4.3703 -2.1939 2.7635 0
M  V30 14 C -4.5185 -0.5182 -3.6077 0
M  V30 15 C 5.1494 -2.1217 4.0728 0
M  V30 16 C -5.8216 -1.3165 -3.5951 0
M  V30 17 N 5.9262 -0.9056 4.142 0
M  V30 18 C -6.6793 -1.107 -4.8468 0
M  V30 19 C 7.183 -0.7929 3.603 0
M  V30 20 C -7.1086 0.3364 -5.1207 0
M  V30 21 O 7.7666 -1.7058 3.0284 0
M  V30 22 C 7.7963 0.5809 3.7635 0
M  V30 23 C -7.9721 0.9352 -4.0097 0
M  V30 24 C 7.2525 1.5565 2.7264 0
M  V30 25 N -8.3181 2.3215 -4.2939 0
M  V30 26 C 5.9271 2.1824 3.1392 0
M  V30 27 O -9.3397 2.4691 -5.2475 0
M  V30 28 C -7.5356 3.396 -3.9528 0
M  V30 29 O 5.2821 1.765 4.1032 0
M  V30 30 N 5.5057 3.2323 2.3627 0
M  V30 31 O -6.5351 3.2992 -3.242 0
M  V30 32 C -7.9836 4.7275 -4.4972 0
M  V30 33 O 6.2892 3.6642 1.2788 0
M  V30 34 C 4.2488 3.9584 2.5188 0
M  V30 35 C 3.3558 3.9068 1.2774 0
M  V30 36 C 2.8409 2.5139 0.904 0
M  V30 37 C 1.8616 1.9358 1.9292 0
M  V30 38 C 1.1948 0.6685 1.3935 0
M  V30 39 N 0.2566 0.1345 2.3718 0
M  V30 40 H -1.6127 -4.0634 -1.2619 0
M  V30 41 H -0.3675 -2.9315 -1.8231 0
M  V30 42 H 0.4693 -5.6995 -0.7536 0
M  V30 43 H 1.7846 -5.4084 1.5447 0
M  V30 44 H 0.8322 -4.1999 2.4332 0
M  V30 45 H -2.8761 -2.1197 -0.2516 0
M  V30 46 H -1.6346 -1.0161 -0.8638 0
M  V30 47 H 2.1776 -2.3783 1.267 0
M  V30 48 H 3.2306 -3.6211 0.6154 0
M  V30 49 H 3.9148 -4.3089 2.8804 0
M  V30 50 H 2.7017 -3.2559 3.6138 0
M  V30 51 H -3.7626 -0.154 -1.6544 0
M  V30 52 H 5.0654 -2.2882 1.9202 0
M  V30 53 H 3.826 -1.2523 2.6149 0
M  V30 54 H -3.9334 -0.7529 -4.5036 0
M  V30 55 H -4.717 0.5577 -3.5983 0
M  V30 56 H 4.4676 -2.1105 4.9296 0
M  V30 57 H 5.8145 -2.9862 4.1726 0
M  V30 58 H -6.3973 -1.073 -2.6944 0
M  V30 59 H -5.5913 -2.3866 -3.5168 0
M  V30 60 H 5.4827 -0.0643 4.5138 0
M  V30 61 H -7.5748 -1.7354 -4.7645 0
M  V30 62 H -6.1245 -1.4739 -5.7193 0
M  V30 63 H -6.2272 0.9649 -5.2934 0
M  V30 64 H -7.6739 0.3554 -6.0614 0
M  V30 65 H 8.8784 0.4683 3.6258 0
M  V30 66 H 7.6399 0.9379 4.7879 0
M  V30 67 H -8.9009 0.3677 -3.8868 0
M  V30 68 H -7.4299 0.9178 -3.0594 0
M  V30 69 H 7.9832 2.3652 2.6069 0
M  V30 70 H 7.1174 1.0681 1.7546 0
M  V30 71 H -10.1361 2.5053 -4.6857 0
M  V30 72 H -9.019 4.9248 -4.2057 0
M  V30 73 H -7.8983 4.7306 -5.5872 0
M  V30 74 H -7.3499 5.5214 -4.0919 0
M  V30 75 H 6.7038 4.474 1.6305 0
M  V30 76 H 4.5156 5.002 2.7222 0
M  V30 77 H 3.7147 3.5847 3.3978 0
M  V30 78 H 3.9052 4.3111 0.4183 0
M  V30 79 H 2.4993 4.574 1.4347 0
M  V30 80 H 3.6801 1.8234 0.7597 0
M  V30 81 H 2.3335 2.5953 -0.0655 0
M  V30 82 H 2.392 1.7093 2.8616 0
M  V30 83 H 1.0925 2.682 2.165 0
M  V30 84 H 1.9534 -0.0838 1.1586 0
M  V30 85 H 0.6516 0.8914 0.4688 0
M  V30 86 H -0.1601 -0.7313 2.0016 0
M  V30 87 H 0.7593 -0.1525 3.2097 0
M  V30 END ATOM
M  V30 BEGIN BOND
M  V30 1 2 1 2
M  V30 2 1 2 3
M  V30 3 1 2 4
M  V30 4 1 3 5
M  V30 5 1 3 6
M  V30 6 1 4 7
M  V30 7 1 6 8
M  V30 8 1 7 9
M  V30 9 1 8 10
M  V30 10 2 9 11
M  V30 11 1 9 12
M  V30 12 1 10 13
M  V30 13 1 12 14
M  V30 14 1 13 15
M  V30 15 1 14 16
M  V30 16 1 15 17
M  V30 17 1 16 18
M  V30 18 1 17 19
M  V30 19 1 18 20
M  V30 20 2 19 21
M  V30 21 1 19 22
M  V30 22 1 20 23
M  V30 23 1 22 24
M  V30 24 1 23 25
M  V30 25 1 24 26
M  V30 26 1 25 27
M  V30 27 1 25 28
M  V30 28 2 26 29
M  V30 29 1 26 30
M  V30 30 2 28 31
M  V30 31 1 28 32
M  V30 32 1 30 33
M  V30 33 1 30 34
M  V30 34 1 34 35
M  V30 35 1 35 36
M  V30 36 1 36 37
M  V30 37 1 37 38
M  V30 38 1 38 39
M  V30 39 1 4 40
M  V30 40 1 4 41
M  V30 41 1 5 42
M  V30 42 1 6 43
M  V30 43 1 6 44
M  V30 44 1 7 45
M  V30 45 1 7 46
M  V30 46 1 8 47
M  V30 47 1 8 48
M  V30 48 1 10 49
M  V30 49 1 10 50
M  V30 50 1 12 51
M  V30 51 1 13 52
M  V30 52 1 13 53
M  V30 53 1 14 54
M  V30 54 1 14 55
M  V30 55 1 15 56
M  V30 56 1 15 57
M  V30 57 1 16 58
M  V30 58 1 16 59
M  V30 59 1 17 60
M  V30 60 1 18 61
M  V30 61 1 18 62
M  V30 62 1 20 63
M  V30 63 1 20 64
M  V30 64 1 22 65
M  V30 65 1 22 66
M  V30 66 1 23 67
M  V30 67 1 23 68
M  V30 68 1 24 69
M  V30 69 1 24 70
M  V30 70 1 27 71
M  V30 71 1 32 72
M  V30 72 1 32 73
M  V30 73 1 32 74
M  V30 74 1 33 75
M  V30 75 1 34 76
M  V30 76 1 34 77
M  V30 77 1 35 78
M  V30 78 1 35 79
M  V30 79 1 36 80
M  V30 80 1 36 81
M  V30 81 1 37 82
M  V30 82 1 37 83
M  V30 83 1 38 84
M  V30 84 1 38 85
M  V30 85 1 39 86
M  V30 86 1 39 87
M  V30 END BOND
M  V30 END CTAB
M  END
>  <level_0>
5605

>  <index>
5605

>  <NO.>
5606

>  <Name>
deferoxamine

>  <SMILES>
CC(=O)N(O)CCCCCNC(=O)CCC(=O)N(O)CCCCCNC(=O)CCC(=O)N(O)CCCCCN

>  <logBB>


>  <Class>
-1

>  <MW>
560.35

>  <nHBAcc>
9

>  <nHBDon>
6

>  <SLogP>
0.92

>  <TopoPSA>
205.84

>  <MMFF94 Energy>
-11.947

$$$$
CC(=O)NC(C=O)C(O)C(O)C(O)CO
Actelion Java MolfileCreator 2.0

  0  0  0  0  0  0              0 V3000
M  V30 BEGIN CTAB
M  V30 COUNTS 30 29 0 0 0
M  V30 BEGIN ATOM
M  V30 1 O -1.6363 2.8065 -2.1823 0
M  V30 2 C -2.0894 1.8764 -1.5248 0
M  V30 3 N -1.3286 1.1435 -0.6517 0
M  V30 4 C -3.5103 1.4028 -1.654 0
M  V30 5 C 0.0585 1.482 -0.3393 0
M  V30 6 C 0.9706 1.0745 -1.4835 0
M  V30 7 C 0.529 0.9181 1.021 0
M  V30 8 O 2.1763 0.872 -1.3502 0
M  V30 9 O -0.1726 1.6463 2.0555 0
M  V30 10 C 0.2721 -0.5823 1.2824 0
M  V30 11 O -1.1292 -0.8766 1.0525 0
M  V30 12 C 1.1067 -1.5816 0.4733 0
M  V30 13 O 0.5936 -2.8992 0.7838 0
M  V30 14 C 2.598 -1.5588 0.8122 0
M  V30 15 O 3.2188 -2.6437 0.1162 0
M  V30 16 H -1.7294 0.3375 -0.1689 0
M  V30 17 H -3.5715 0.6686 -2.4614 0
M  V30 18 H -4.1568 2.2542 -1.8834 0
M  V30 19 H -3.8578 0.9447 -0.7237 0
M  V30 20 H 0.1009 2.5785 -0.3002 0
M  V30 21 H 0.5174 1.0714 -2.4897 0
M  V30 22 H 1.5901 1.1411 1.1732 0
M  V30 23 H -1.1031 1.3518 2.0072 0
M  V30 24 H 0.4198 -0.7812 2.352 0
M  V30 25 H -1.1676 -1.8584 1.1232 0
M  V30 26 H 0.9437 -1.4675 -0.602 0
M  V30 27 H 1.2841 -3.5093 0.4444 0
M  V30 28 H 2.7598 -1.7257 1.8819 0
M  V30 29 H 3.0765 -0.6235 0.5149 0
M  V30 30 H 4.1812 -2.5138 0.1976 0
M  V30 END ATOM
M  V30 BEGIN BOND
M  V30 1 2 1 2
M  V30 2 1 2 3
M  V30 3 1 2 4
M  V30 4 1 3 5
M  V30 5 1 5 6
M  V30 6 1 5 7
M  V30 7 2 6 8
M  V30 8 1 7 9
M  V30 9 1 7 10
M  V30 10 1 10 11
M  V30 11 1 10 12
M  V30 12 1 12 13
M  V30 13 1 12 14
M  V30 14 1 14 15
M  V30 15 1 3 16
M  V30 16 1 4 17
M  V30 17 1 4 18
M  V30 18 1 4 19
M  V30 19 1 5 20
M  V30 20 1 6 21
M  V30 21 1 7 22
M  V30 22 1 9 23
M  V30 23 1 10 24
M  V30 24 1 11 25
M  V30 25 1 12 26
M  V30 26 1 13 27
M  V30 27 1 14 28
M  V30 28 1 14 29
M  V30 29 1 15 30
M  V30 END BOND
M  V30 END CTAB
M  END
>  <level_0>
5606

>  <index>
5606

>  <NO.>
5607

>  <Name>
2-acetamido-2-deoxyglucose

>  <SMILES>
CC(=O)NC(C=O)C(O)C(O)C(O)CO

>  <logBB>


>  <Class>
-1

>  <MW>
221.09

>  <nHBAcc>
6

>  <nHBDon>
5

>  <SLogP>
-3.23

>  <TopoPSA>
127.09

>  <MMFF94 Energy>
57.884

$$$$
CC(=O)Nc1c(I)c(C(=O)NC2C(O)OC(CO)C(O)C2O)c(I)c(N(C)C(C)=O)c1I
Actelion Java MolfileCreator 2.0

  0  0  0  0  0  0              0 V3000
M  V30 BEGIN CTAB
M  V30 COUNTS 54 55 0 0 0
M  V30 BEGIN ATOM
M  V30 1 I -3.7238 -4.221 -0.4959 0
M  V30 2 C -2.6601 -2.429 0.0144 0
M  V30 3 C -3.2888 -1.1661 -0.0813 0
M  V30 4 C -1.3175 -2.5341 0.4365 0
M  V30 5 N -4.6351 -1.0678 -0.5289 0
M  V30 6 C -2.5511 -0.0032 0.2397 0
M  V30 7 N -0.6871 -3.7993 0.4248 0
M  V30 8 C -0.6167 -1.3775 0.8336 0
M  V30 9 C -5.7387 -1.0837 0.3203 0
M  V30 10 C -4.8637 -0.951 -1.963 0
M  V30 11 I -3.437 1.9331 -0.0171 0
M  V30 12 C -1.226 -0.1153 0.7087 0
M  V30 13 C 0.2597 -4.1118 -0.5358 0
M  V30 14 I 1.32 -1.5631 1.7346 0
M  V30 15 O -6.8939 -1.0132 -0.1028 0
M  V30 16 C -5.4765 -1.1978 1.8045 0
M  V30 17 C -0.4782 1.0994 1.0843 0
M  V30 18 O 0.6466 -3.3345 -1.404 0
M  V30 19 C 0.7508 -5.5313 -0.4496 0
M  V30 20 O -0.6634 1.6153 2.1768 0
M  V30 21 N 0.4002 1.5558 0.1285 0
M  V30 22 C 1.1842 2.7908 0.3278 0
M  V30 23 C 2.258 2.6334 1.4435 0
M  V30 24 C 1.8152 3.2397 -1.0035 0
M  V30 25 O 3.3774 1.8582 1.0118 0
M  V30 26 O 2.7115 3.888 1.9251 0
M  V30 27 O 2.0901 4.6464 -1.0015 0
M  V30 28 C 3.0986 2.4614 -1.3355 0
M  V30 29 C 4.0418 2.4338 -0.1263 0
M  V30 30 O 3.6982 3.082 -2.4801 0
M  V30 31 C 5.275 1.5623 -0.3947 0
M  V30 32 O 6.1115 1.5271 0.7613 0
M  V30 33 H -1.1241 -4.5525 0.9444 0
M  V30 34 H -3.9219 -0.9383 -2.5199 0
M  V30 35 H -5.4768 -1.7938 -2.2976 0
M  V30 36 H -5.4195 -0.0292 -2.1628 0
M  V30 37 H -4.9507 -2.1274 2.0331 0
M  V30 38 H -4.8967 -0.3433 2.1603 0
M  V30 39 H -6.4316 -1.2069 2.3389 0
M  V30 40 H 0.7275 -5.8924 0.5824 0
M  V30 41 H 1.7817 -5.5808 -0.8105 0
M  V30 42 H 0.1149 -6.1689 -1.0694 0
M  V30 43 H 0.5091 1.0334 -0.7324 0
M  V30 44 H 0.4736 3.5609 0.6566 0
M  V30 45 H 1.8251 2.1048 2.2983 0
M  V30 46 H 1.0977 3.0974 -1.8215 0
M  V30 47 H 2.9292 3.7536 2.8619 0
M  V30 48 H 2.7025 4.7926 -1.7509 0
M  V30 49 H 2.8163 1.4366 -1.6081 0
M  V30 50 H 4.3957 3.4408 0.1291 0
M  V30 51 H 4.37 2.4767 -2.8413 0
M  V30 52 H 5.8693 1.9465 -1.2282 0
M  V30 53 H 4.9845 0.5296 -0.6143 0
M  V30 54 H 5.505 1.4072 1.5184 0
M  V30 END ATOM
M  V30 BEGIN BOND
M  V30 1 1 1 2
M  V30 2 2 2 3
M  V30 3 1 2 4
M  V30 4 1 3 5
M  V30 5 1 3 6
M  V30 6 1 4 7
M  V30 7 2 4 8
M  V30 8 1 5 9
M  V30 9 1 5 10
M  V30 10 1 6 11
M  V30 11 2 6 12
M  V30 12 1 7 13
M  V30 13 1 8 14
M  V30 14 2 9 15
M  V30 15 1 9 16
M  V30 16 1 12 17
M  V30 17 2 13 18
M  V30 18 1 13 19
M  V30 19 2 17 20
M  V30 20 1 17 21
M  V30 21 1 21 22
M  V30 22 1 22 23
M  V30 23 1 22 24
M  V30 24 1 23 25
M  V30 25 1 23 26
M  V30 26 1 24 27
M  V30 27 1 24 28
M  V30 28 1 25 29
M  V30 29 1 28 30
M  V30 30 1 29 31
M  V30 31 1 31 32
M  V30 32 1 8 12
M  V30 33 1 28 29
M  V30 34 1 7 33
M  V30 35 1 10 34
M  V30 36 1 10 35
M  V30 37 1 10 36
M  V30 38 1 16 37
M  V30 39 1 16 38
M  V30 40 1 16 39
M  V30 41 1 19 40
M  V30 42 1 19 41
M  V30 43 1 19 42
M  V30 44 1 21 43
M  V30 45 1 22 44
M  V30 46 1 23 45
M  V30 47 1 24 46
M  V30 48 1 26 47
M  V30 49 1 27 48
M  V30 50 1 28 49
M  V30 51 1 29 50
M  V30 52 1 30 51
M  V30 53 1 31 52
M  V30 54 1 31 53
M  V30 55 1 32 54
M  V30 END BOND
M  V30 END CTAB
M  END
>  <level_0>
5608

>  <index>
5608

>  <NO.>
5609

>  <Name>
hms3373j14

>  <SMILES>
CC(=O)Nc1c(I)c(C(=O)NC2C(O)OC(CO)C(O)C2O)c(I)c(N(C)C(C)=O)c1I

>  <logBB>


>  <Class>
-1

>  <MW>
788.85

>  <nHBAcc>
8

>  <nHBDon>
6

>  <SLogP>
-0.03

>  <TopoPSA>
168.66

>  <MMFF94 Energy>
106.93

$$$$
CC(C)(C)c1cc(C(C)(C)C)c(NC(=O)c2c[nH]c3ccccc3c2=O)cc1O
Actelion Java MolfileCreator 2.0

  0  0  0  0  0  0              0 V3000
M  V30 BEGIN CTAB
M  V30 COUNTS 57 59 0 0 0
M  V30 BEGIN ATOM
M  V30 1 O -0.8714 -3.0128 -0.2376 0
M  V30 2 C -0.315 -3.4373 -1.2477 0
M  V30 3 C 0.4697 -2.5336 -2.137 0
M  V30 4 C -0.4077 -4.8763 -1.6111 0
M  V30 5 C 0.6552 -1.0667 -1.913 0
M  V30 6 C 1.0462 -3.0954 -3.2137 0
M  V30 7 C 0.2477 -5.3253 -2.7694 0
M  V30 8 C -1.1352 -5.7624 -0.8094 0
M  V30 9 O 1.3181 -0.3984 -2.7046 0
M  V30 10 N 0.045 -0.5729 -0.777 0
M  V30 11 N 0.968 -4.4204 -3.5548 0
M  V30 12 C 0.1637 -6.6763 -3.1138 0
M  V30 13 C -1.2107 -7.1085 -1.1649 0
M  V30 14 C 0.0688 0.771 -0.3486 0
M  V30 15 C -0.5627 -7.5637 -2.314 0
M  V30 16 C 0.1416 1.1194 1.0189 0
M  V30 17 C -0.0662 1.7734 -1.3197 0
M  V30 18 C 0.0405 2.5057 1.3259 0
M  V30 19 C 0.3259 0.0997 2.1776 0
M  V30 20 C -0.1281 3.1228 -0.9711 0
M  V30 21 C -0.089 3.534 0.3636 0
M  V30 22 C 0.7633 0.7549 3.5201 0
M  V30 23 C -1.0179 -0.6024 2.46 0
M  V30 24 C 1.4294 -0.9432 1.8776 0
M  V30 25 O -0.2431 4.0449 -1.9745 0
M  V30 26 C -0.1777 5.0215 0.7748 0
M  V30 27 C -0.1189 5.2546 2.3069 0
M  V30 28 C 1.0033 5.8166 0.1745 0
M  V30 29 C -1.5152 5.6324 0.2994 0
M  V30 30 H 1.638 -2.5083 -3.9136 0
M  V30 31 H -1.6406 -5.4084 0.0861 0
M  V30 32 H -0.4359 -1.2433 -0.1801 0
M  V30 33 H 1.4436 -4.7436 -4.3895 0
M  V30 34 H 0.6606 -7.0513 -4.0044 0
M  V30 35 H -1.7747 -7.8029 -0.5463 0
M  V30 36 H -0.6236 -8.6144 -2.5888 0
M  V30 37 H -0.1473 1.496 -2.3668 0
M  V30 38 H 0.0654 2.8003 2.368 0
M  V30 39 H -0.0142 1.4062 3.9355 0
M  V30 40 H 0.9599 -0.0041 4.2875 0
M  V30 41 H 1.6812 1.342 3.399 0
M  V30 42 H -1.4108 -1.1363 1.5926 0
M  V30 43 H -0.9185 -1.3322 3.272 0
M  V30 44 H -1.7844 0.123 2.7584 0
M  V30 45 H 2.35 -0.4551 1.5371 0
M  V30 46 H 1.1412 -1.6798 1.1269 0
M  V30 47 H 1.6775 -1.5272 2.7725 0
M  V30 48 H -0.1197 3.5956 -2.8269 0
M  V30 49 H 0.8218 4.8903 2.736 0
M  V30 50 H -0.1857 6.3228 2.5478 0
M  V30 51 H -0.9496 4.7598 2.8238 0
M  V30 52 H 0.9802 5.8528 -0.9182 0
M  V30 53 H 0.995 6.857 0.5209 0
M  V30 54 H 1.9633 5.376 0.4687 0
M  V30 55 H -2.3674 5.059 0.6829 0
M  V30 56 H -1.605 5.6645 -0.7899 0
M  V30 57 H -1.6243 6.6653 0.6513 0
M  V30 END ATOM
M  V30 BEGIN BOND
M  V30 1 2 1 2
M  V30 2 1 2 3
M  V30 3 1 2 4
M  V30 4 1 3 5
M  V30 5 2 3 6
M  V30 6 2 4 7
M  V30 7 1 4 8
M  V30 8 2 5 9
M  V30 9 1 5 10
M  V30 10 1 6 11
M  V30 11 1 7 12
M  V30 12 2 8 13
M  V30 13 1 10 14
M  V30 14 2 12 15
M  V30 15 2 14 16
M  V30 16 1 14 17
M  V30 17 1 16 18
M  V30 18 1 16 19
M  V30 19 2 17 20
M  V30 20 2 18 21
M  V30 21 1 19 22
M  V30 22 1 19 23
M  V30 23 1 19 24
M  V30 24 1 20 25
M  V30 25 1 21 26
M  V30 26 1 26 27
M  V30 27 1 26 28
M  V30 28 1 26 29
M  V30 29 1 7 11
M  V30 30 1 13 15
M  V30 31 1 20 21
M  V30 32 1 6 30
M  V30 33 1 8 31
M  V30 34 1 10 32
M  V30 35 1 11 33
M  V30 36 1 12 34
M  V30 37 1 13 35
M  V30 38 1 15 36
M  V30 39 1 17 37
M  V30 40 1 18 38
M  V30 41 1 22 39
M  V30 42 1 22 40
M  V30 43 1 22 41
M  V30 44 1 23 42
M  V30 45 1 23 43
M  V30 46 1 23 44
M  V30 47 1 24 45
M  V30 48 1 24 46
M  V30 49 1 24 47
M  V30 50 1 25 48
M  V30 51 1 27 49
M  V30 52 1 27 50
M  V30 53 1 27 51
M  V30 54 1 28 52
M  V30 55 1 28 53
M  V30 56 1 28 54
M  V30 57 1 29 55
M  V30 58 1 29 56
M  V30 59 1 29 57
M  V30 END BOND
M  V30 END CTAB
M  END
>  <level_0>
5623

>  <index>
5623

>  <NO.>
5624

>  <Name>
ivacaftor

>  <SMILES>
CC(C)(C)c1cc(C(C)(C)C)c(NC(=O)c2c[nH]c3ccccc3c2=O)cc1O

>  <logBB>


>  <Class>
-1

>  <MW>
392.21

>  <nHBAcc>
3

>  <nHBDon>
3

>  <SLogP>
5.08

>  <TopoPSA>
82.19

>  <MMFF94 Energy>
78.224

$$$$
CC(C)C(=O)Oc1ccc(CO)cc1C(CCN(C(C)C)C(C)C)c1ccccc1
Actelion Java MolfileCreator 2.0

  0  0  0  0  0  0              0 V3000
M  V30 BEGIN CTAB
M  V30 COUNTS 67 68 0 0 0
M  V30 BEGIN ATOM
M  V30 1 O 0.5494 -4.0082 -1.0205 0
M  V30 2 C 1.3591 -3.1718 -0.6437 0
M  V30 3 O 1.1122 -2.1169 0.2323 0
M  V30 4 C 2.8168 -3.1125 -1.0723 0
M  V30 5 C -0.2051 -2.063 0.7029 0
M  V30 6 C 3.2432 -4.4284 -1.7181 0
M  V30 7 C 3.0317 -1.9453 -2.0294 0
M  V30 8 C -1.1144 -1.1504 0.148 0
M  V30 9 C -0.5405 -2.8597 1.7995 0
M  V30 10 C -2.3944 -1.0749 0.7264 0
M  V30 11 C -0.7389 -0.2464 -1.023 0 CFG=2
M  V30 12 C -1.8187 -2.7736 2.3489 0
M  V30 13 C -2.7575 -1.8778 1.8216 0
M  V30 14 C -1.7057 -0.4072 -2.202 0
M  V30 15 C -0.5274 1.2163 -0.5523 0
M  V30 16 C -4.1476 -1.7976 2.3907 0
M  V30 17 C -2.6224 0.5839 -2.5857 0
M  V30 18 C -1.6897 -1.6114 -2.9303 0
M  V30 19 C 0.6552 1.3532 0.4253 0
M  V30 20 O -4.451 -0.4508 2.7283 0
M  V30 21 C -3.4842 0.3821 -3.6676 0
M  V30 22 C -2.552 -1.8121 -4.0097 0
M  V30 23 N 1.0372 2.7531 0.6846 0
M  V30 24 C -3.448 -0.8137 -4.3798 0
M  V30 25 C 2.4343 2.9192 1.1421 0
M  V30 26 C 0.0274 3.5188 1.447 0
M  V30 27 C 2.9682 1.8472 2.1043 0
M  V30 28 C 3.3418 2.9987 -0.0939 0
M  V30 29 C 0.0084 3.2657 2.9573 0
M  V30 30 C 0.1601 5.0223 1.1607 0
M  V30 31 H 3.425 -2.9712 -0.1704 0
M  V30 32 H 4.3076 -4.4091 -1.9745 0
M  V30 33 H 3.0749 -5.2692 -1.0363 0
M  V30 34 H 2.6765 -4.6269 -2.6347 0
M  V30 35 H 2.7976 -0.991 -1.5456 0
M  V30 36 H 2.3877 -2.0319 -2.9117 0
M  V30 37 H 4.0724 -1.9018 -2.3666 0
M  V30 38 H 0.1865 -3.5449 2.2245 0
M  V30 39 H -3.1292 -0.3771 0.3258 0
M  V30 40 H 0.2291 -0.5679 -1.4293 0
M  V30 41 H -2.0747 -3.4059 3.1956 0
M  V30 42 H -0.3247 1.8478 -1.4278 0
M  V30 43 H -1.4467 1.5921 -0.0896 0
M  V30 44 H -4.872 -2.1562 1.6517 0
M  V30 45 H -4.2416 -2.4053 3.2967 0
M  V30 46 H -2.6881 1.5274 -2.0503 0
M  V30 47 H -1.0072 -2.4125 -2.6508 0
M  V30 48 H 0.4382 0.8352 1.3659 0
M  V30 49 H 1.4993 0.8311 -0.0397 0
M  V30 50 H -5.3612 -0.449 3.0672 0
M  V30 51 H -4.1868 1.1612 -3.9517 0
M  V30 52 H -2.525 -2.7514 -4.5554 0
M  V30 53 H -4.1205 -0.9693 -5.2188 0
M  V30 54 H 2.5485 3.8835 1.6494 0
M  V30 55 H -0.9688 3.259 1.0744 0
M  V30 56 H 2.3278 1.732 2.9829 0
M  V30 57 H 3.9641 2.1297 2.4642 0
M  V30 58 H 3.0667 0.8683 1.6239 0
M  V30 59 H 4.3729 3.2229 0.2011 0
M  V30 60 H 3.3548 2.0602 -0.6581 0
M  V30 61 H 3.0132 3.7969 -0.7692 0
M  V30 62 H -0.1188 2.2027 3.184 0
M  V30 63 H -0.8318 3.7969 3.419 0
M  V30 64 H 0.9215 3.6201 3.4457 0
M  V30 65 H -0.6949 5.5648 1.5803 0
M  V30 66 H 1.0653 5.4566 1.5957 0
M  V30 67 H 0.1711 5.2151 0.0821 0
M  V30 END ATOM
M  V30 BEGIN BOND
M  V30 1 2 1 2
M  V30 2 1 2 3
M  V30 3 1 2 4
M  V30 4 1 3 5
M  V30 5 1 4 6
M  V30 6 1 4 7
M  V30 7 2 5 8
M  V30 8 1 5 9
M  V30 9 1 8 10
M  V30 10 1 8 11
M  V30 11 2 9 12
M  V30 12 2 10 13
M  V30 13 1 11 14
M  V30 14 1 11 15
M  V30 15 1 13 16
M  V30 16 2 14 17
M  V30 17 1 14 18
M  V30 18 1 15 19
M  V30 19 1 16 20
M  V30 20 1 17 21
M  V30 21 2 18 22
M  V30 22 1 19 23
M  V30 23 2 21 24
M  V30 24 1 23 25
M  V30 25 1 23 26
M  V30 26 1 25 27
M  V30 27 1 25 28
M  V30 28 1 26 29
M  V30 29 1 26 30
M  V30 30 1 12 13
M  V30 31 1 22 24
M  V30 32 1 4 31
M  V30 33 1 6 32
M  V30 34 1 6 33
M  V30 35 1 6 34
M  V30 36 1 7 35
M  V30 37 1 7 36
M  V30 38 1 7 37
M  V30 39 1 9 38
M  V30 40 1 10 39
M  V30 41 1 11 40
M  V30 42 1 12 41
M  V30 43 1 15 42
M  V30 44 1 15 43
M  V30 45 1 16 44
M  V30 46 1 16 45
M  V30 47 1 17 46
M  V30 48 1 18 47
M  V30 49 1 19 48
M  V30 50 1 19 49
M  V30 51 1 20 50
M  V30 52 1 21 51
M  V30 53 1 22 52
M  V30 54 1 24 53
M  V30 55 1 25 54
M  V30 56 1 26 55
M  V30 57 1 27 56
M  V30 58 1 27 57
M  V30 59 1 27 58
M  V30 60 1 28 59
M  V30 61 1 28 60
M  V30 62 1 28 61
M  V30 63 1 29 62
M  V30 64 1 29 63
M  V30 65 1 29 64
M  V30 66 1 30 65
M  V30 67 1 30 66
M  V30 68 1 30 67
M  V30 END BOND
M  V30 BEGIN COLLECTION
M  V30 MDLV30/STERAC1 ATOMS=(1 11)
M  V30 END COLLECTION
M  V30 END CTAB
M  END
>  <level_0>
5625

>  <index>
5625

>  <NO.>
5626

>  <Name>
2-(3-(diisopropylamino)-1-phenylpropyl)-4-(hydroxymethyl)phenyl isobutyrate

>  <SMILES>
CC(C)C(=O)Oc1ccc(CO)cc1C(CCN(C(C)C)C(C)C)c1ccccc1

>  <logBB>


>  <Class>
1

>  <MW>
411.28

>  <nHBAcc>
4

>  <nHBDon>
1

>  <SLogP>
5.38

>  <TopoPSA>
49.77

>  <MMFF94 Energy>
73.578

$$$$
CC(C)COC(=O)OCN1C(=O)CN(CCN2CC(=O)N(COC(=O)OCC(C)C)C(=O)C2)CC1=O
Actelion Java MolfileCreator 2.0

  0  0  0  0  0  0              0 V3000
M  V30 BEGIN CTAB
M  V30 COUNTS 70 71 0 0 0
M  V30 BEGIN ATOM
M  V30 1 O 2.5355 0.3958 -1.1086 0
M  V30 2 C 1.9766 0.6045 -2.1865 0
M  V30 3 N 1.8235 -0.3722 -3.1665 0
M  V30 4 C 1.4564 1.993 -2.5454 0
M  V30 5 C 1.1576 -0.18 -4.3723 0
M  V30 6 C 2.3968 -1.6764 -2.9119 0
M  V30 7 N 0.2535 1.9427 -3.3929 0
M  V30 8 O 1.0411 -1.0623 -5.2247 0
M  V30 9 C 0.5941 1.2178 -4.6318 0
M  V30 10 O 3.734 -1.6609 -3.4043 0
M  V30 11 C -0.9455 1.3735 -2.7437 0
M  V30 12 C 4.3709 -2.8388 -3.2109 0
M  V30 13 C -1.4705 2.1431 -1.4993 0
M  V30 14 O 3.8946 -3.8302 -2.6798 0
M  V30 15 O 5.6269 -2.7272 -3.7078 0
M  V30 16 N -0.7066 1.9222 -0.2576 0
M  V30 17 C 6.423 -3.91 -3.5661 0
M  V30 18 C -1.0382 2.9089 0.7855 0
M  V30 19 C -0.8361 0.573 0.3147 0
M  V30 20 C 7.8204 -3.6461 -4.1414 0
M  V30 21 C -2.4259 2.6991 1.3876 0
M  V30 22 C -2.2295 0.3016 0.8746 0
M  V30 23 C 8.5389 -2.5351 -3.3723 0
M  V30 24 C 8.6533 -4.926 -4.1267 0
M  V30 25 O -3.0535 3.6531 1.8507 0
M  V30 26 N -2.9001 1.3924 1.4154 0
M  V30 27 O -2.6953 -0.8386 0.8573 0
M  V30 28 C -4.1856 1.154 2.0373 0
M  V30 29 O -3.9501 0.8741 3.4146 0
M  V30 30 C -5.0939 0.6407 4.0991 0
M  V30 31 O -6.2212 0.6548 3.6293 0
M  V30 32 O -4.7688 0.3938 5.3915 0
M  V30 33 C -5.8701 0.1252 6.2714 0
M  V30 34 C -6.4781 1.4271 6.8123 0
M  V30 35 C -7.6818 1.1211 7.7013 0
M  V30 36 C -5.4415 2.2479 7.5822 0
M  V30 37 H 1.2897 2.5762 -1.637 0
M  V30 38 H 2.2609 2.5127 -3.082 0
M  V30 39 H 2.396 -1.8842 -1.8353 0
M  V30 40 H 1.8167 -2.4507 -3.4278 0
M  V30 41 H 1.3462 1.7805 -5.1981 0
M  V30 42 H -0.2882 1.1303 -5.2764 0
M  V30 43 H -0.822 0.3107 -2.5113 0
M  V30 44 H -1.7593 1.4181 -3.4805 0
M  V30 45 H -1.4562 3.212 -1.7518 0
M  V30 46 H -2.5267 1.8824 -1.3568 0
M  V30 47 H 6.493 -4.1821 -2.5055 0
M  V30 48 H 5.9439 -4.7288 -4.1165 0
M  V30 49 H -0.9745 3.9264 0.3828 0
M  V30 50 H -0.3084 2.8461 1.6019 0
M  V30 51 H -0.1188 0.4478 1.1353 0
M  V30 52 H -0.5946 -0.1969 -0.4237 0
M  V30 53 H 7.7117 -3.3087 -5.1801 0
M  V30 54 H 8.6591 -2.798 -2.3158 0
M  V30 55 H 7.9834 -1.5931 -3.4261 0
M  V30 56 H 9.5347 -2.3556 -3.7914 0
M  V30 57 H 8.7943 -5.2973 -3.1059 0
M  V30 58 H 8.1653 -5.7141 -4.7098 0
M  V30 59 H 9.6423 -4.7518 -4.5635 0
M  V30 60 H -4.8229 2.0409 1.9387 0
M  V30 61 H -4.6823 0.3 1.5619 0
M  V30 62 H -5.4757 -0.48 7.0959 0
M  V30 63 H -6.6248 -0.4905 5.7664 0
M  V30 64 H -6.8175 2.0397 5.968 0
M  V30 65 H -7.3928 0.5187 8.5693 0
M  V30 66 H -8.4458 0.5687 7.1441 0
M  V30 67 H -8.1399 2.0458 8.0683 0
M  V30 68 H -5.0418 1.6851 8.4326 0
M  V30 69 H -4.6029 2.5303 6.9376 0
M  V30 70 H -5.8871 3.1713 7.9677 0
M  V30 END ATOM
M  V30 BEGIN BOND
M  V30 1 2 1 2
M  V30 2 1 2 3
M  V30 3 1 2 4
M  V30 4 1 3 5
M  V30 5 1 3 6
M  V30 6 1 4 7
M  V30 7 2 5 8
M  V30 8 1 5 9
M  V30 9 1 6 10
M  V30 10 1 7 11
M  V30 11 1 10 12
M  V30 12 1 11 13
M  V30 13 2 12 14
M  V30 14 1 12 15
M  V30 15 1 13 16
M  V30 16 1 15 17
M  V30 17 1 16 18
M  V30 18 1 16 19
M  V30 19 1 17 20
M  V30 20 1 18 21
M  V30 21 1 19 22
M  V30 22 1 20 23
M  V30 23 1 20 24
M  V30 24 2 21 25
M  V30 25 1 21 26
M  V30 26 2 22 27
M  V30 27 1 26 28
M  V30 28 1 28 29
M  V30 29 1 29 30
M  V30 30 2 30 31
M  V30 31 1 30 32
M  V30 32 1 32 33
M  V30 33 1 33 34
M  V30 34 1 34 35
M  V30 35 1 34 36
M  V30 36 1 7 9
M  V30 37 1 22 26
M  V30 38 1 4 37
M  V30 39 1 4 38
M  V30 40 1 6 39
M  V30 41 1 6 40
M  V30 42 1 9 41
M  V30 43 1 9 42
M  V30 44 1 11 43
M  V30 45 1 11 44
M  V30 46 1 13 45
M  V30 47 1 13 46
M  V30 48 1 17 47
M  V30 49 1 17 48
M  V30 50 1 18 49
M  V30 51 1 18 50
M  V30 52 1 19 51
M  V30 53 1 19 52
M  V30 54 1 20 53
M  V30 55 1 23 54
M  V30 56 1 23 55
M  V30 57 1 23 56
M  V30 58 1 24 57
M  V30 59 1 24 58
M  V30 60 1 24 59
M  V30 61 1 28 60
M  V30 62 1 28 61
M  V30 63 1 33 62
M  V30 64 1 33 63
M  V30 65 1 34 64
M  V30 66 1 35 65
M  V30 67 1 35 66
M  V30 68 1 35 67
M  V30 69 1 36 68
M  V30 70 1 36 69
M  V30 71 1 36 70
M  V30 END BOND
M  V30 END CTAB
M  END
>  <level_0>
5629

>  <index>
5629

>  <NO.>
5630

>  <Name>
sobuzoxane

>  <SMILES>
CC(C)COC(=O)OCN1C(=O)CN(CCN2CC(=O)N(COC(=O)OCC(C)C)C(=O)C2)CC1=O

>  <logBB>


>  <Class>
-1

>  <MW>
514.23

>  <nHBAcc>
12

>  <nHBDon>
0

>  <SLogP>
-0.14

>  <TopoPSA>
152.3

>  <MMFF94 Energy>
-4.0896

$$$$
CC(C)c1cn(C2CC(O)C(CO)O2)c(=O)[nH]c1=O
Actelion Java MolfileCreator 2.0

  0  0  0  0  0  0              0 V3000
M  V30 BEGIN CTAB
M  V30 COUNTS 37 38 0 0 0
M  V30 BEGIN ATOM
M  V30 1 O -0.5532 -3.5607 -0.7904 0
M  V30 2 C -0.6746 -2.6067 -0.025 0
M  V30 3 N -0.3897 -1.293 -0.3752 0
M  V30 4 N -1.0998 -2.7995 1.2586 0
M  V30 5 C -0.5601 -0.2557 0.5231 0
M  V30 6 C 0.0625 -1.0728 -1.7501 0
M  V30 7 C -1.2685 -1.8351 2.2075 0
M  V30 8 C -0.9825 -0.4374 1.7833 0
M  V30 9 O 0.0146 0.3284 -2.082 0
M  V30 10 C 1.4958 -1.5573 -2.0012 0
M  V30 11 O -1.6358 -2.1114 3.3442 0
M  V30 12 C -1.1755 0.6486 2.825 0
M  V30 13 C 1.287 0.6918 -2.6639 0
M  V30 14 C 2.2988 -0.2795 -2.0769 0
M  V30 15 C -0.3339 1.9095 2.5895 0
M  V30 16 C -2.655 1.0293 2.9329 0
M  V30 17 C 1.562 2.1632 -2.3784 0
M  V30 18 O 2.7457 0.1032 -0.7787 0
M  V30 19 O 0.57 2.9652 -3.0227 0
M  V30 20 H -1.3015 -3.7482 1.5327 0
M  V30 21 H -0.347 0.7426 0.1548 0
M  V30 22 H -0.6305 -1.5982 -2.4187 0
M  V30 23 H 1.8626 -2.2563 -1.2436 0
M  V30 24 H 1.5281 -2.0608 -2.9752 0
M  V30 25 H -0.8539 0.2516 3.797 0
M  V30 26 H 1.1804 0.531 -3.7442 0
M  V30 27 H 3.1859 -0.3768 -2.7089 0
M  V30 28 H -0.6566 2.4566 1.697 0
M  V30 29 H -0.4242 2.5924 3.4417 0
M  V30 30 H 0.7268 1.6604 2.4773 0
M  V30 31 H -3.0277 1.4522 1.9931 0
M  V30 32 H -3.2754 0.1611 3.1794 0
M  V30 33 H -2.8062 1.7758 3.7203 0
M  V30 34 H 2.5427 2.4648 -2.7567 0
M  V30 35 H 1.5064 2.3847 -1.3079 0
M  V30 36 H 2.0074 0.0187 -0.1511 0
M  V30 37 H -0.291 2.5736 -2.7816 0
M  V30 END ATOM
M  V30 BEGIN BOND
M  V30 1 2 1 2
M  V30 2 1 2 3
M  V30 3 1 2 4
M  V30 4 1 3 5
M  V30 5 1 3 6
M  V30 6 1 4 7
M  V30 7 2 5 8
M  V30 8 1 6 9
M  V30 9 1 6 10
M  V30 10 2 7 11
M  V30 11 1 8 12
M  V30 12 1 9 13
M  V30 13 1 10 14
M  V30 14 1 12 15
M  V30 15 1 12 16
M  V30 16 1 13 17
M  V30 17 1 14 18
M  V30 18 1 17 19
M  V30 19 1 7 8
M  V30 20 1 13 14
M  V30 21 1 4 20
M  V30 22 1 5 21
M  V30 23 1 6 22
M  V30 24 1 10 23
M  V30 25 1 10 24
M  V30 26 1 12 25
M  V30 27 1 13 26
M  V30 28 1 14 27
M  V30 29 1 15 28
M  V30 30 1 15 29
M  V30 31 1 15 30
M  V30 32 1 16 31
M  V30 33 1 16 32
M  V30 34 1 16 33
M  V30 35 1 17 34
M  V30 36 1 17 35
M  V30 37 1 18 36
M  V30 38 1 19 37
M  V30 END BOND
M  V30 END CTAB
M  END
>  <level_0>
5640

>  <index>
5640

>  <NO.>
5641

>  <Name>
epervudine

>  <SMILES>
CC(C)c1cn(C2CC(O)C(CO)O2)c(=O)[nH]c1=O

>  <logBB>


>  <Class>
-1

>  <MW>
270.12

>  <nHBAcc>
5

>  <nHBDon>
3

>  <SLogP>
-0.7

>  <TopoPSA>
104.55

>  <MMFF94 Energy>
-58.021

$$$$
CC(C)c1nc(CN(C)C(=O)NC(CCN2CCOCC2)C(=O)NC(CCC(Cc2ccccc2)NC(=O)OCc2cncs2)Cc2ccccc2)cs1
Actelion Java MolfileCreator 2.0

  0  0  0  0  0  0              0 V3000
M  V30 BEGIN CTAB
M  V30 COUNTS 107 111 0 0 0
M  V30 BEGIN ATOM
M  V30 1 S 7.2974 6.8954 0.4799 0
M  V30 2 C 5.8575 7.0379 1.4032 0
M  V30 3 C 7.0629 8.4915 -0.1013 0
M  V30 4 C 5.3026 8.2861 1.1969 0
M  V30 5 C 5.3672 5.9239 2.262 0
M  V30 6 N 5.9963 9.1199 0.3411 0
M  V30 7 O 4.3494 5.2603 1.5112 0
M  V30 8 C 3.784 4.2267 2.175 0
M  V30 9 O 4.0852 3.86 3.3006 0
M  V30 10 N 2.83 3.662 1.388 0
M  V30 11 C 2.0218 2.5255 1.8089 0
M  V30 12 C 0.6613 2.5211 1.0746 0
M  V30 13 C 2.7837 1.2148 1.53 0
M  V30 14 C -0.1919 3.7412 1.3323 0
M  V30 15 C 2.2929 0.046 2.4006 0
M  V30 16 C -0.7033 4.0004 2.6113 0
M  V30 17 C -0.5003 4.6236 0.2872 0
M  V30 18 C 2.6797 -1.324 1.811 0
M  V30 19 C -1.4994 5.1239 2.8409 0
M  V30 20 C -1.2987 5.7446 0.5185 0
M  V30 21 N 1.8032 -1.6231 0.6826 0
M  V30 22 C 2.651 -2.4612 2.8572 0
M  V30 23 C -1.7969 5.9956 1.7951 0
M  V30 24 C 2.1879 -1.571 -0.6387 0
M  V30 25 C 1.2849 -2.8079 3.4085 0
M  V30 26 O 3.3304 -1.2913 -0.9938 0
M  V30 27 C 1.0097 -1.646 -1.6374 0
M  V30 28 C 0.7525 -2.1124 4.5022 0
M  V30 29 C 0.5307 -3.8388 2.8292 0
M  V30 30 N -0.1448 -2.3433 -1.0589 0
M  V30 31 C 0.6396 -0.1986 -2.001 0
M  V30 32 C -0.5125 -2.4331 4.9977 0
M  V30 33 C -0.731 -4.1618 3.3299 0
M  V30 34 C -0.1866 -3.7079 -0.9863 0
M  V30 35 C -0.2906 -0.1213 -3.2182 0
M  V30 36 C -1.2544 -3.4564 4.4111 0
M  V30 37 O 0.7467 -4.3969 -1.3869 0
M  V30 38 N -1.3323 -4.2417 -0.4342 0
M  V30 39 N -0.7685 1.2169 -3.5902 0
M  V30 40 C -1.5143 -5.6897 -0.5265 0
M  V30 41 C -2.4633 -3.4794 0.0804 0
M  V30 42 C -1.6617 1.8295 -2.5901 0
M  V30 43 C 0.3138 2.1578 -3.9337 0
M  V30 44 C -2.373 -6.0082 -1.7113 0
M  V30 45 C -2.1768 3.1974 -3.0696 0
M  V30 46 C -0.2557 3.5131 -4.3845 0
M  V30 47 N -3.7538 -6.0498 -1.5542 0
M  V30 48 C -1.9319 -6.2557 -2.9977 0
M  V30 49 O -1.0884 4.0848 -3.3646 0
M  V30 50 C -4.333 -6.3318 -2.7036 0
M  V30 51 S -3.2615 -6.5554 -4.0309 0
M  V30 52 C -5.8219 -6.4568 -2.8982 0
M  V30 53 C -6.3799 -7.5905 -2.037 0
M  V30 54 C -6.5157 -5.1353 -2.5649 0
M  V30 55 H 7.7582 8.9499 -0.7923 0
M  V30 56 H 4.3848 8.6425 1.6501 0
M  V30 57 H 6.1742 5.2234 2.5079 0
M  V30 58 H 4.9454 6.3303 3.1895 0
M  V30 59 H 2.7018 4.0795 0.4761 0
M  V30 60 H 1.8647 2.6213 2.8907 0
M  V30 61 H 0.0723 1.64 1.3564 0
M  V30 62 H 0.8384 2.4308 -0.0053 0
M  V30 63 H 2.7047 0.9801 0.4629 0
M  V30 64 H 3.8558 1.348 1.7261 0
M  V30 65 H 2.737 0.164 3.3968 0
M  V30 66 H 1.2057 0.0959 2.5288 0
M  V30 67 H -0.4847 3.3309 3.4401 0
M  V30 68 H -0.1246 4.4492 -0.7192 0
M  V30 69 H 3.7118 -1.2597 1.4438 0
M  V30 70 H -1.8873 5.32 3.8372 0
M  V30 71 H -1.5301 6.4214 -0.3004 0
M  V30 72 H 0.8459 -1.9007 0.8706 0
M  V30 73 H 3.3191 -2.2112 3.6918 0
M  V30 74 H 3.0794 -3.3659 2.4044 0
M  V30 75 H -2.416 6.8706 1.9746 0
M  V30 76 H 1.3562 -2.1999 -2.5176 0
M  V30 77 H 1.3223 -1.32 4.9827 0
M  V30 78 H 0.9279 -4.4023 1.9859 0
M  V30 79 H -0.9902 -1.8213 -0.8992 0
M  V30 80 H 0.1731 0.2774 -1.1307 0
M  V30 81 H 1.5578 0.3626 -2.2119 0
M  V30 82 H -0.915 -1.8903 5.8494 0
M  V30 83 H -1.3017 -4.9701 2.8806 0
M  V30 84 H 0.225 -0.555 -4.0847 0
M  V30 85 H -1.1672 -0.7611 -3.0571 0
M  V30 86 H -2.2348 -3.7119 4.805 0
M  V30 87 H -0.5502 -6.2022 -0.617 0
M  V30 88 H -1.9803 -6.049 0.398 0
M  V30 89 H -3.0391 -4.0833 0.7877 0
M  V30 90 H -2.1177 -2.5835 0.6033 0
M  V30 91 H -3.0992 -3.1833 -0.7589 0
M  V30 92 H -2.5203 1.1756 -2.4006 0
M  V30 93 H -1.1312 1.9766 -1.643 0
M  V30 94 H 0.9576 2.333 -3.0633 0
M  V30 95 H 0.9304 1.7459 -4.7402 0
M  V30 96 H -2.7783 3.6632 -2.2823 0
M  V30 97 H -2.8121 3.0951 -3.9578 0
M  V30 98 H 0.5631 4.2147 -4.573 0
M  V30 99 H -0.8324 3.4161 -5.3123 0
M  V30 100 H -0.914 -6.2642 -3.3633 0
M  V30 101 H -6.0425 -6.6944 -3.9468 0
M  V30 102 H -7.4564 -7.7082 -2.2008 0
M  V30 103 H -5.8964 -8.5427 -2.2825 0
M  V30 104 H -6.22 -7.4028 -0.969 0
M  V30 105 H -6.1301 -4.3223 -3.1903 0
M  V30 106 H -6.3605 -4.8503 -1.5179 0
M  V30 107 H -7.5948 -5.2093 -2.7374 0
M  V30 END ATOM
M  V30 BEGIN BOND
M  V30 1 1 1 2
M  V30 2 1 1 3
M  V30 3 2 2 4
M  V30 4 1 2 5
M  V30 5 2 3 6
M  V30 6 1 5 7
M  V30 7 1 7 8
M  V30 8 2 8 9
M  V30 9 1 8 10
M  V30 10 1 10 11
M  V30 11 1 11 12
M  V30 12 1 11 13
M  V30 13 1 12 14
M  V30 14 1 13 15
M  V30 15 2 14 16
M  V30 16 1 14 17
M  V30 17 1 15 18
M  V30 18 1 16 19
M  V30 19 2 17 20
M  V30 20 1 18 21
M  V30 21 1 18 22
M  V30 22 2 19 23
M  V30 23 1 21 24
M  V30 24 1 22 25
M  V30 25 2 24 26
M  V30 26 1 24 27
M  V30 27 2 25 28
M  V30 28 1 25 29
M  V30 29 1 27 30
M  V30 30 1 27 31
M  V30 31 1 28 32
M  V30 32 2 29 33
M  V30 33 1 30 34
M  V30 34 1 31 35
M  V30 35 2 32 36
M  V30 36 2 34 37
M  V30 37 1 34 38
M  V30 38 1 35 39
M  V30 39 1 38 40
M  V30 40 1 38 41
M  V30 41 1 39 42
M  V30 42 1 39 43
M  V30 43 1 40 44
M  V30 44 1 42 45
M  V30 45 1 43 46
M  V30 46 1 44 47
M  V30 47 2 44 48
M  V30 48 1 45 49
M  V30 49 2 47 50
M  V30 50 1 48 51
M  V30 51 1 50 52
M  V30 52 1 52 53
M  V30 53 1 52 54
M  V30 54 1 4 6
M  V30 55 1 20 23
M  V30 56 1 33 36
M  V30 57 1 46 49
M  V30 58 1 50 51
M  V30 59 1 3 55
M  V30 60 1 4 56
M  V30 61 1 5 57
M  V30 62 1 5 58
M  V30 63 1 10 59
M  V30 64 1 11 60
M  V30 65 1 12 61
M  V30 66 1 12 62
M  V30 67 1 13 63
M  V30 68 1 13 64
M  V30 69 1 15 65
M  V30 70 1 15 66
M  V30 71 1 16 67
M  V30 72 1 17 68
M  V30 73 1 18 69
M  V30 74 1 19 70
M  V30 75 1 20 71
M  V30 76 1 21 72
M  V30 77 1 22 73
M  V30 78 1 22 74
M  V30 79 1 23 75
M  V30 80 1 27 76
M  V30 81 1 28 77
M  V30 82 1 29 78
M  V30 83 1 30 79
M  V30 84 1 31 80
M  V30 85 1 31 81
M  V30 86 1 32 82
M  V30 87 1 33 83
M  V30 88 1 35 84
M  V30 89 1 35 85
M  V30 90 1 36 86
M  V30 91 1 40 87
M  V30 92 1 40 88
M  V30 93 1 41 89
M  V30 94 1 41 90
M  V30 95 1 41 91
M  V30 96 1 42 92
M  V30 97 1 42 93
M  V30 98 1 43 94
M  V30 99 1 43 95
M  V30 100 1 45 96
M  V30 101 1 45 97
M  V30 102 1 46 98
M  V30 103 1 46 99
M  V30 104 1 48 100
M  V30 105 1 52 101
M  V30 106 1 53 102
M  V30 107 1 53 103
M  V30 108 1 53 104
M  V30 109 1 54 105
M  V30 110 1 54 106
M  V30 111 1 54 107
M  V30 END BOND
M  V30 END CTAB
M  END
>  <level_0>
5641

>  <index>
5641

>  <NO.>
5642

>  <Name>
thiazol-5-ylmethyl (2r,5r)-5-((s)-2-(3-((2-isopropylthiazol-4-yl)methyl)-3-methylureido)-4-morpholinobutanamido)-1,6-diphenylhexan-2-ylcarbamate

>  <SMILES>
CC(C)c1nc(CN(C)C(=O)NC(CCN2CCOCC2)C(=O)NC(CCC(Cc2ccccc2)NC(=O)OCc2cncs2)Cc2ccccc2)cs1

>  <logBB>


>  <Class>
-1

>  <MW>
775.35

>  <nHBAcc>
10

>  <nHBDon>
3

>  <SLogP>
6.0

>  <TopoPSA>
138.02

>  <MMFF94 Energy>
-9.2539

$$$$
CC(Oc1cc(-c2cnn(C3CCNCC3)c2)cnc1N)c1c(Cl)ccc(F)c1Cl
Actelion Java MolfileCreator 2.0

  0  0  0  0  0  0              0 V3000
M  V30 BEGIN CTAB
M  V30 COUNTS 52 55 0 0 0
M  V30 BEGIN ATOM
M  V30 1 Cl 3.0839 -0.2432 0.973 0
M  V30 2 C 2.4611 0.5897 2.3616 0
M  V30 3 C 2.2346 -0.1786 3.511 0
M  V30 4 C 2.2018 1.9803 2.3542 0
M  V30 5 F 2.4734 -1.4988 3.5075 0
M  V30 6 C 1.7644 0.4003 4.6789 0
M  V30 7 C 1.7498 2.5549 3.5647 0
M  V30 8 C 2.4304 2.8012 1.0879 0 CFG=1
M  V30 9 C 1.5285 1.7695 4.7068 0
M  V30 10 Cl 1.4631 4.2502 3.7625 0
M  V30 11 O 1.3889 3.7522 0.8256 0
M  V30 12 C 3.7501 3.5739 1.1789 0
M  V30 13 C 0.172 3.3202 0.3606 0
M  V30 14 C -0.8418 4.2882 0.2822 0
M  V30 15 C -0.1316 2.0202 -0.0466 0
M  V30 16 N -2.087 4.0135 -0.1492 0
M  V30 17 N -0.6306 5.58 0.7183 0
M  V30 18 C -1.417 1.7043 -0.5001 0
M  V30 19 C -2.3451 2.7397 -0.5288 0
M  V30 20 C -1.7805 0.3584 -0.9095 0
M  V30 21 C -3.0466 -0.2636 -1.0213 0
M  V30 22 C -0.8966 -0.6299 -1.2942 0
M  V30 23 N -2.9685 -1.5296 -1.4353 0
M  V30 24 N -1.6485 -1.7339 -1.594 0
M  V30 25 C -1.1435 -3.0265 -2.0385 0
M  V30 26 C -1.4397 -4.1385 -1.0279 0
M  V30 27 C -1.6631 -3.4055 -3.4286 0
M  V30 28 C -0.9024 -5.473 -1.5341 0
M  V30 29 C -1.1174 -4.7669 -3.8462 0
M  V30 30 N -1.432 -5.7952 -2.8571 0
M  V30 31 H 1.5948 -0.2133 5.5582 0
M  V30 32 H 2.5277 2.1726 0.1985 0
M  V30 33 H 1.1724 2.2289 5.6275 0
M  V30 34 H 3.7395 4.3191 1.9803 0
M  V30 35 H 4.5973 2.9012 1.3478 0
M  V30 36 H 3.9264 4.1266 0.2493 0
M  V30 37 H 0.6118 1.2368 -0.0108 0
M  V30 38 H -1.4117 6.2083 0.6066 0
M  V30 39 H 0.3159 5.9278 0.7311 0
M  V30 40 H -3.3637 2.5848 -0.8737 0
M  V30 41 H -4.0256 0.1483 -0.8122 0
M  V30 42 H 0.1799 -0.6495 -1.387 0
M  V30 43 H -0.0523 -2.9131 -2.1059 0
M  V30 44 H -0.9845 -3.9009 -0.0586 0
M  V30 45 H -2.5207 -4.2217 -0.8539 0
M  V30 46 H -2.7607 -3.4348 -3.4343 0
M  V30 47 H -1.3666 -2.6472 -4.1635 0
M  V30 48 H -1.1911 -6.2645 -0.8341 0
M  V30 49 H 0.1938 -5.4554 -1.5621 0
M  V30 50 H -0.0326 -4.7113 -3.9985 0
M  V30 51 H -1.5603 -5.0515 -4.8067 0
M  V30 52 H -1.0604 -6.6936 -3.1659 0
M  V30 END ATOM
M  V30 BEGIN BOND
M  V30 1 1 1 2
M  V30 2 2 2 3
M  V30 3 1 2 4
M  V30 4 1 3 5
M  V30 5 1 3 6
M  V30 6 2 4 7
M  V30 7 1 4 8
M  V30 8 2 6 9
M  V30 9 1 7 10
M  V30 10 1 8 11
M  V30 11 1 8 12
M  V30 12 1 11 13
M  V30 13 2 13 14
M  V30 14 1 13 15
M  V30 15 1 14 16
M  V30 16 1 14 17
M  V30 17 2 15 18
M  V30 18 2 16 19
M  V30 19 1 18 20
M  V30 20 1 20 21
M  V30 21 2 20 22
M  V30 22 2 21 23
M  V30 23 1 22 24
M  V30 24 1 24 25
M  V30 25 1 25 26
M  V30 26 1 25 27
M  V30 27 1 26 28
M  V30 28 1 27 29
M  V30 29 1 28 30
M  V30 30 1 7 9
M  V30 31 1 18 19
M  V30 32 1 23 24
M  V30 33 1 29 30
M  V30 34 1 6 31
M  V30 35 1 8 32
M  V30 36 1 9 33
M  V30 37 1 12 34
M  V30 38 1 12 35
M  V30 39 1 12 36
M  V30 40 1 15 37
M  V30 41 1 17 38
M  V30 42 1 17 39
M  V30 43 1 19 40
M  V30 44 1 21 41
M  V30 45 1 22 42
M  V30 46 1 25 43
M  V30 47 1 26 44
M  V30 48 1 26 45
M  V30 49 1 27 46
M  V30 50 1 27 47
M  V30 51 1 28 48
M  V30 52 1 28 49
M  V30 53 1 29 50
M  V30 54 1 29 51
M  V30 55 1 30 52
M  V30 END BOND
M  V30 BEGIN COLLECTION
M  V30 MDLV30/STERAC1 ATOMS=(1 8)
M  V30 END COLLECTION
M  V30 END CTAB
M  END
>  <level_0>
5649

>  <index>
5649

>  <NO.>
5650

>  <Name>
crizotinib

>  <SMILES>
CC(Oc1cc(-c2cnn(C3CCNCC3)c2)cnc1N)c1c(Cl)ccc(F)c1Cl

>  <logBB>


>  <Class>
-1

>  <MW>
449.12

>  <nHBAcc>
5

>  <nHBDon>
2

>  <SLogP>
5.04

>  <TopoPSA>
77.99

>  <MMFF94 Energy>
26.492

$$$$
CC/C=C/C/C=C/C/C=C/C/C=C/C/C=C/CCCC(=O)OCC
Actelion Java MolfileCreator 2.0

  0  0  0  0  0  0              0 V3000
M  V30 BEGIN CTAB
M  V30 COUNTS 58 57 0 0 0
M  V30 BEGIN ATOM
M  V30 1 O -2.3231 -2.7108 -7.4492 0
M  V30 2 C -3.041 -3.0406 -6.5167 0
M  V30 3 O -4.0912 -3.9069 -6.5988 0
M  V30 4 C -2.9026 -2.5621 -5.0906 0
M  V30 5 C -4.3526 -4.4493 -7.9015 0
M  V30 6 C -1.7656 -1.5539 -4.9347 0
M  V30 7 C -3.5097 -5.6895 -8.1309 0
M  V30 8 C -1.6363 -1.0871 -3.4847 0
M  V30 9 C -0.5165 -0.0991 -3.3282 0
M  V30 10 C -0.6862 1.166 -2.911 0
M  V30 11 C 0.431 2.1567 -2.7509 0
M  V30 12 C 0.576 2.5833 -1.319 0
M  V30 13 C 1.6557 2.3247 -0.5624 0
M  V30 14 C 1.8061 2.7496 0.8704 0
M  V30 15 C 1.8448 1.6233 1.8709 0
M  V30 16 C 1.5875 0.3201 1.6544 0
M  V30 17 C 1.6142 -0.8038 2.6577 0
M  V30 18 C 2.1892 -0.4476 3.9989 0
M  V30 19 C 1.4819 -0.4137 5.1407 0
M  V30 20 C 2.0614 -0.0568 6.4787 0
M  V30 21 C 1.4616 1.2139 7.0084 0
M  V30 22 C 2.1597 2.338 7.2381 0
M  V30 23 C 1.5543 3.6072 7.7637 0
M  V30 24 C 2.1565 3.9951 9.1051 0
M  V30 25 H -2.7145 -3.4348 -4.4552 0
M  V30 26 H -3.8497 -2.0991 -4.7916 0
M  V30 27 H -4.1882 -3.7011 -8.6854 0
M  V30 28 H -5.4143 -4.7156 -7.9295 0
M  V30 29 H -1.9457 -0.692 -5.5903 0
M  V30 30 H -0.8229 -2.0076 -5.2672 0
M  V30 31 H -3.7442 -6.1444 -9.0973 0
M  V30 32 H -2.4422 -5.4492 -8.1075 0
M  V30 33 H -3.6876 -6.4265 -7.3409 0
M  V30 34 H -2.5864 -0.6525 -3.1505 0
M  V30 35 H -1.4336 -1.9462 -2.8341 0
M  V30 36 H 0.4843 -0.4585 -3.5605 0
M  V30 37 H -1.686 1.5253 -2.6758 0
M  V30 38 H 1.3736 1.7442 -3.1308 0
M  V30 39 H 0.2106 3.0399 -3.3618 0
M  V30 40 H -0.2591 3.1332 -0.89 0
M  V30 41 H 2.4924 1.7747 -0.9884 0
M  V30 42 H 2.7416 3.316 0.9549 0
M  V30 43 H 1.0002 3.4359 1.158 0
M  V30 44 H 2.0949 1.9491 2.8796 0
M  V30 45 H 1.3023 1.0E-4 0.6533 0
M  V30 46 H 0.5943 -1.1929 2.764 0
M  V30 47 H 2.2167 -1.6205 2.2418 0
M  V30 48 H 3.2503 -0.2069 4.0156 0
M  V30 49 H 0.4208 -0.6535 5.1208 0
M  V30 50 H 1.8484 -0.8688 7.1836 0
M  V30 51 H 3.1537 0.0241 6.4197 0
M  V30 52 H 0.3942 1.1928 7.2185 0
M  V30 53 H 3.2265 2.3618 7.0241 0
M  V30 54 H 1.7334 4.4089 7.0383 0
M  V30 55 H 0.4677 3.5101 7.8708 0
M  V30 56 H 1.7111 4.9287 9.4635 0
M  V30 57 H 1.9742 3.2218 9.8589 0
M  V30 58 H 3.2385 4.1459 9.026 0
M  V30 END ATOM
M  V30 BEGIN BOND
M  V30 1 2 1 2
M  V30 2 1 2 3
M  V30 3 1 2 4
M  V30 4 1 3 5
M  V30 5 1 4 6
M  V30 6 1 5 7
M  V30 7 1 6 8
M  V30 8 1 8 9
M  V30 9 2 9 10
M  V30 10 1 10 11
M  V30 11 1 11 12
M  V30 12 2 12 13
M  V30 13 1 13 14
M  V30 14 1 14 15
M  V30 15 2 15 16
M  V30 16 1 16 17
M  V30 17 1 17 18
M  V30 18 2 18 19
M  V30 19 1 19 20
M  V30 20 1 20 21
M  V30 21 2 21 22
M  V30 22 1 22 23
M  V30 23 1 23 24
M  V30 24 1 4 25
M  V30 25 1 4 26
M  V30 26 1 5 27
M  V30 27 1 5 28
M  V30 28 1 6 29
M  V30 29 1 6 30
M  V30 30 1 7 31
M  V30 31 1 7 32
M  V30 32 1 7 33
M  V30 33 1 8 34
M  V30 34 1 8 35
M  V30 35 1 9 36
M  V30 36 1 10 37
M  V30 37 1 11 38
M  V30 38 1 11 39
M  V30 39 1 12 40
M  V30 40 1 13 41
M  V30 41 1 14 42
M  V30 42 1 14 43
M  V30 43 1 15 44
M  V30 44 1 16 45
M  V30 45 1 17 46
M  V30 46 1 17 47
M  V30 47 1 18 48
M  V30 48 1 19 49
M  V30 49 1 20 50
M  V30 50 1 20 51
M  V30 51 1 21 52
M  V30 52 1 22 53
M  V30 53 1 23 54
M  V30 54 1 23 55
M  V30 55 1 24 56
M  V30 56 1 24 57
M  V30 57 1 24 58
M  V30 END BOND
M  V30 END CTAB
M  END
>  <level_0>
5651

>  <index>
5651

>  <NO.>
5652

>  <Name>
84494-70-2

>  <SMILES>
CC/C=C/C/C=C/C/C=C/C/C=C/C/C=C/CCCC(=O)OCC

>  <logBB>


>  <Class>
-1

>  <MW>
330.26

>  <nHBAcc>
2

>  <nHBDon>
0

>  <SLogP>
6.47

>  <TopoPSA>
26.3

>  <MMFF94 Energy>
19.53

$$$$
CC1(C)C(C(=O)O)N2C(=O)CC2S1(=O)=O
Actelion Java MolfileCreator 2.0

  0  0  0  0  0  0              0 V3000
M  V30 BEGIN CTAB
M  V30 COUNTS 26 27 0 0 0
M  V30 BEGIN ATOM
M  V30 1 S 0.7455 -1.7403 0.0828 0
M  V30 2 O 1.7425 -2.2193 -0.8574 0
M  V30 3 O 0.6616 -2.3211 1.4088 0
M  V30 4 C 0.9094 0.1053 0.221 0
M  V30 5 C -0.8775 -1.8191 -0.7254 0
M  V30 6 C -0.0718 0.5592 -0.8753 0
M  V30 7 C 0.5653 0.5349 1.6554 0
M  V30 8 C 2.3578 0.507 -0.093 0
M  V30 9 N -1.1851 -0.3809 -0.8535 0
M  V30 10 C -2.1377 -1.9437 0.1397 0
M  V30 11 C -0.53 2.0135 -0.9323 0
M  V30 12 C -2.1644 -0.4092 0.0945 0
M  V30 13 O -1.4976 2.4376 -1.5454 0
M  V30 14 O 0.3036 2.8819 -0.3332 0
M  V30 15 O -2.6824 0.4794 0.7237 0
M  V30 16 H -0.8721 -2.3525 -1.6789 0
M  V30 17 H 0.4047 0.3918 -1.8522 0
M  V30 18 H 0.583 1.6214 1.7756 0
M  V30 19 H 1.2955 0.1264 2.3643 0
M  V30 20 H -0.4135 0.1776 1.9819 0
M  V30 21 H 2.5117 1.584 0.0256 0
M  V30 22 H 3.0589 -0.004 0.5764 0
M  V30 23 H 2.6394 0.2452 -1.1186 0
M  V30 24 H -2.9972 -2.4083 -0.3511 0
M  V30 25 H -2.0055 -2.3635 1.1386 0
M  V30 26 H -0.1291 3.753 -0.4735 0
M  V30 END ATOM
M  V30 BEGIN BOND
M  V30 1 2 1 2
M  V30 2 2 1 3
M  V30 3 1 1 4
M  V30 4 1 1 5
M  V30 5 1 4 6
M  V30 6 1 4 7
M  V30 7 1 4 8
M  V30 8 1 5 9
M  V30 9 1 5 10
M  V30 10 1 6 11
M  V30 11 1 9 12
M  V30 12 2 11 13
M  V30 13 1 11 14
M  V30 14 2 12 15
M  V30 15 1 6 9
M  V30 16 1 10 12
M  V30 17 1 5 16
M  V30 18 1 6 17
M  V30 19 1 7 18
M  V30 20 1 7 19
M  V30 21 1 7 20
M  V30 22 1 8 21
M  V30 23 1 8 22
M  V30 24 1 8 23
M  V30 25 1 10 24
M  V30 26 1 10 25
M  V30 27 1 14 26
M  V30 END BOND
M  V30 END CTAB
M  END
>  <level_0>
5652

>  <index>
5652

>  <NO.>
5653

>  <Name>
sulbactam sodium

>  <SMILES>
CC1(C)C(C(=O)O)N2C(=O)CC2S1(=O)=O

>  <logBB>


>  <Class>
-1

>  <MW>
233.04

>  <nHBAcc>
4

>  <nHBDon>
1

>  <SLogP>
-0.79

>  <TopoPSA>
91.75

>  <MMFF94 Energy>
-2.4653

$$$$
CC12CCC3C4C=CC(=O)NC4CCC3C1CCC2C(=O)Nc1cc(C(F)(F)F)ccc1C(F)(F)F
Actelion Java MolfileCreator 2.0

  0  0  0  0  0  0              0 V3000
M  V30 BEGIN CTAB
M  V30 COUNTS 64 68 0 0 0
M  V30 BEGIN ATOM
M  V30 1 F 4.3287 3.5109 0.4893 0
M  V30 2 C 3.9846 2.2491 0.1087 0
M  V30 3 F 2.7205 2.0556 0.5937 0
M  V30 4 F 4.7841 1.4103 0.8213 0
M  V30 5 C 4.0883 2.026 -1.3784 0
M  V30 6 C 3.2628 1.1154 -2.0646 0
M  V30 7 C 5.089 2.7162 -2.0901 0
M  V30 8 N 2.2474 0.4226 -1.3676 0
M  V30 9 C 3.4286 0.9489 -3.4471 0
M  V30 10 C 5.2529 2.5297 -3.4623 0
M  V30 11 C 1.7098 -0.8089 -1.7097 0
M  V30 12 C 4.416 1.6515 -4.1577 0
M  V30 13 O 2.077 -1.5013 -2.6525 0
M  V30 14 C 0.5777 -1.2324 -0.7683 0
M  V30 15 C 4.5865 1.4298 -5.6413 0
M  V30 16 C -0.8054 -0.5939 -1.0888 0
M  V30 17 C 0.3262 -2.7523 -0.7769 0
M  V30 18 F 5.3502 0.3393 -5.9204 0
M  V30 19 F 3.405 1.2441 -6.2923 0
M  V30 20 F 5.1908 2.4787 -6.2683 0
M  V30 21 C -1.7857 -1.5802 -0.3929 0
M  V30 22 C -0.9805 0.8434 -0.5709 0
M  V30 23 C -1.0696 -0.5651 -2.6161 0
M  V30 24 C -1.1898 -2.9492 -0.7588 0
M  V30 25 C -1.8964 -1.3908 1.1483 0
M  V30 26 C -1.0283 0.9678 0.9461 0
M  V30 27 C -2.1443 0.0936 1.5376 0
M  V30 28 C -2.9986 -2.2965 1.7366 0
M  V30 29 C -2.2524 0.2341 3.0816 0
M  V30 30 C -3.1322 -2.1334 3.2478 0
M  V30 31 C -2.4938 1.637 3.6008 0
M  V30 32 C -3.3875 -0.676 3.6087 0
M  V30 33 C -3.124 1.8574 4.7668 0
M  V30 34 N -3.5813 -0.5008 5.0349 0
M  V30 35 C -3.5906 0.735 5.6177 0
M  V30 36 O -3.9576 0.9176 6.7704 0
M  V30 37 H 5.7526 3.4072 -1.5691 0
M  V30 38 H 1.929 0.83 -0.4923 0
M  V30 39 H 2.7803 0.2725 -4.0036 0
M  V30 40 H 6.0362 3.0753 -3.9879 0
M  V30 41 H 0.892 -0.969 0.2497 0
M  V30 42 H 0.7737 -3.1998 0.1187 0
M  V30 43 H 0.762 -3.2713 -1.6363 0
M  V30 44 H -2.7915 -1.4851 -0.8223 0
M  V30 45 H -0.1912 1.4951 -0.9609 0
M  V30 46 H -1.9211 1.2527 -0.9657 0
M  V30 47 H -2.1137 -0.3055 -2.8258 0
M  V30 48 H -0.8676 -1.5264 -3.0984 0
M  V30 49 H -0.4432 0.1853 -3.1118 0
M  V30 50 H -1.5308 -3.2471 -1.7576 0
M  V30 51 H -1.4731 -3.7611 -0.0853 0
M  V30 52 H -0.947 -1.7004 1.6082 0
M  V30 53 H -0.0602 0.7043 1.3868 0
M  V30 54 H -1.197 2.0237 1.1795 0
M  V30 55 H -3.0984 0.416 1.0955 0
M  V30 56 H -3.9599 -2.063 1.2612 0
M  V30 57 H -2.7937 -3.3507 1.5276 0
M  V30 58 H -1.2953 -0.0925 3.515 0
M  V30 59 H -3.9547 -2.7619 3.6104 0
M  V30 60 H -2.2223 -2.4939 3.7443 0
M  V30 61 H -2.1123 2.4928 3.0556 0
M  V30 62 H -4.3369 -0.3668 3.147 0
M  V30 63 H -3.2658 2.8516 5.1731 0
M  V30 64 H -3.9446 -1.2497 5.6114 0
M  V30 END ATOM
M  V30 BEGIN BOND
M  V30 1 1 1 2
M  V30 2 1 2 3
M  V30 3 1 2 4
M  V30 4 1 2 5
M  V30 5 2 5 6
M  V30 6 1 5 7
M  V30 7 1 6 8
M  V30 8 1 6 9
M  V30 9 2 7 10
M  V30 10 1 8 11
M  V30 11 2 9 12
M  V30 12 2 11 13
M  V30 13 1 11 14
M  V30 14 1 12 15
M  V30 15 1 14 16
M  V30 16 1 14 17
M  V30 17 1 15 18
M  V30 18 1 15 19
M  V30 19 1 15 20
M  V30 20 1 16 21
M  V30 21 1 16 22
M  V30 22 1 16 23
M  V30 23 1 17 24
M  V30 24 1 21 25
M  V30 25 1 22 26
M  V30 26 1 25 27
M  V30 27 1 25 28
M  V30 28 1 27 29
M  V30 29 1 28 30
M  V30 30 1 29 31
M  V30 31 1 29 32
M  V30 32 2 31 33
M  V30 33 1 32 34
M  V30 34 1 33 35
M  V30 35 2 35 36
M  V30 36 1 10 12
M  V30 37 1 21 24
M  V30 38 1 26 27
M  V30 39 1 30 32
M  V30 40 1 34 35
M  V30 41 1 7 37
M  V30 42 1 8 38
M  V30 43 1 9 39
M  V30 44 1 10 40
M  V30 45 1 14 41
M  V30 46 1 17 42
M  V30 47 1 17 43
M  V30 48 1 21 44
M  V30 49 1 22 45
M  V30 50 1 22 46
M  V30 51 1 23 47
M  V30 52 1 23 48
M  V30 53 1 23 49
M  V30 54 1 24 50
M  V30 55 1 24 51
M  V30 56 1 25 52
M  V30 57 1 26 53
M  V30 58 1 26 54
M  V30 59 1 27 55
M  V30 60 1 28 56
M  V30 61 1 28 57
M  V30 62 1 29 58
M  V30 63 1 30 59
M  V30 64 1 30 60
M  V30 65 1 31 61
M  V30 66 1 32 62
M  V30 67 1 33 63
M  V30 68 1 34 64
M  V30 END BOND
M  V30 END CTAB
M  END
>  <level_0>
5659

>  <index>
5659

>  <NO.>
5660

>  <Name>
dutasteride

>  <SMILES>
CC12CCC3C4C=CC(=O)NC4CCC3C1CCC2C(=O)Nc1cc(C(F)(F)F)ccc1C(F)(F)F

>  <logBB>


>  <Class>
-1

>  <MW>
514.21

>  <nHBAcc>
2

>  <nHBDon>
2

>  <SLogP>
6.19

>  <TopoPSA>
58.2

>  <MMFF94 Energy>
86.288

$$$$
CC12CCC3C4CCC(=O)C=C4CCC3C1CCC2OC(=O)CCc1ccccc1
Actelion Java MolfileCreator 2.0

  0  0  0  0  0  0              0 V3000
M  V30 BEGIN CTAB
M  V30 COUNTS 64 68 0 0 0
M  V30 BEGIN ATOM
M  V30 1 O 1.3665 -2.0905 -6.1201 0
M  V30 2 C 1.6493 -1.6411 -5.0123 0
M  V30 3 C 2.3058 -2.5198 -4.0134 0
M  V30 4 C 1.2662 -0.2441 -4.584 0
M  V30 5 C 2.668 -2.0416 -2.8117 0
M  V30 6 C 2.3082 0.3167 -3.6305 0
M  V30 7 C 2.5411 -0.5829 -2.406 0
M  V30 8 C 3.1403 -2.947 -1.7061 0
M  V30 9 C 1.4711 -0.5075 -1.2848 0
M  V30 10 C 2.1637 -2.8608 -0.5293 0
M  V30 11 C 1.9255 -1.4048 -0.0823 0
M  V30 12 C 1.1525 0.9364 -0.8344 0
M  V30 13 C 0.8741 -1.3068 1.0251 0
M  V30 14 C 0.2013 1.0012 0.3737 0
M  V30 15 C 0.6954 0.1353 1.5426 0
M  V30 16 C 1.0654 -2.1232 2.2986 0
M  V30 17 C -0.3117 -0.104 2.6925 0
M  V30 18 C 1.979 0.7631 2.1437 0
M  V30 19 C 0.1764 -1.4186 3.3429 0
M  V30 20 O -1.6283 -0.313 2.151 0
M  V30 21 C -2.6669 -0.0931 3.0002 0
M  V30 22 O -2.5684 0.2168 4.1799 0
M  V30 23 C -3.9783 -0.2643 2.2795 0
M  V30 24 C -4.6948 1.0723 2.1314 0
M  V30 25 C -3.9851 2.0152 1.1892 0
M  V30 26 C -3.1939 3.0575 1.6909 0
M  V30 27 C -4.0854 1.8451 -0.198 0
M  V30 28 C -2.5218 3.9168 0.8208 0
M  V30 29 C -3.4106 2.7044 -1.0663 0
M  V30 30 C -2.6298 3.7401 -0.5571 0
M  V30 31 H 2.3924 -3.5648 -4.2875 0
M  V30 32 H 0.2741 -0.2767 -4.1221 0
M  V30 33 H 1.2128 0.3899 -5.4755 0
M  V30 34 H 2.0467 1.3385 -3.3408 0
M  V30 35 H 3.2595 0.4006 -4.1755 0
M  V30 36 H 3.5014 -0.263 -1.976 0
M  V30 37 H 4.1445 -2.642 -1.388 0
M  V30 38 H 3.2146 -3.9882 -2.0404 0
M  V30 39 H 0.5312 -0.9265 -1.6759 0
M  V30 40 H 1.2081 -3.3205 -0.814 0
M  V30 41 H 2.5629 -3.45 0.3044 0
M  V30 42 H 2.8859 -1.0286 0.2925 0
M  V30 43 H 2.083 1.4693 -0.6087 0
M  V30 44 H 0.6745 1.4839 -1.6547 0
M  V30 45 H -0.0779 -1.6451 0.5845 0
M  V30 46 H 0.0852 2.0433 0.6933 0
M  V30 47 H -0.7884 0.6678 0.0385 0
M  V30 48 H 0.7634 -3.1668 2.1623 0
M  V30 49 H 2.1114 -2.1234 2.6248 0
M  V30 50 H -0.321 0.7328 3.4008 0
M  V30 51 H 2.7848 0.8665 1.4126 0
M  V30 52 H 2.3818 0.1832 2.9797 0
M  V30 53 H 1.7628 1.7673 2.5275 0
M  V30 54 H 0.7716 -1.2077 4.2383 0
M  V30 55 H -0.6562 -2.0659 3.6376 0
M  V30 56 H -4.5857 -0.961 2.8684 0
M  V30 57 H -3.8123 -0.7415 1.3066 0
M  V30 58 H -5.7106 0.9008 1.7533 0
M  V30 59 H -4.8169 1.5512 3.1114 0
M  V30 60 H -3.0938 3.2056 2.7646 0
M  V30 61 H -4.6906 1.0416 -0.6114 0
M  V30 62 H -1.9123 4.7236 1.2193 0
M  V30 63 H -3.4956 2.5664 -2.1409 0
M  V30 64 H -2.1061 4.41 -1.2337 0
M  V30 END ATOM
M  V30 BEGIN BOND
M  V30 1 2 1 2
M  V30 2 1 2 3
M  V30 3 1 2 4
M  V30 4 2 3 5
M  V30 5 1 4 6
M  V30 6 1 5 7
M  V30 7 1 5 8
M  V30 8 1 7 9
M  V30 9 1 8 10
M  V30 10 1 9 11
M  V30 11 1 9 12
M  V30 12 1 11 13
M  V30 13 1 12 14
M  V30 14 1 13 15
M  V30 15 1 13 16
M  V30 16 1 15 17
M  V30 17 1 15 18
M  V30 18 1 16 19
M  V30 19 1 17 20
M  V30 20 1 20 21
M  V30 21 2 21 22
M  V30 22 1 21 23
M  V30 23 1 23 24
M  V30 24 1 24 25
M  V30 25 2 25 26
M  V30 26 1 25 27
M  V30 27 1 26 28
M  V30 28 2 27 29
M  V30 29 2 28 30
M  V30 30 1 6 7
M  V30 31 1 10 11
M  V30 32 1 14 15
M  V30 33 1 17 19
M  V30 34 1 29 30
M  V30 35 1 3 31
M  V30 36 1 4 32
M  V30 37 1 4 33
M  V30 38 1 6 34
M  V30 39 1 6 35
M  V30 40 1 7 36
M  V30 41 1 8 37
M  V30 42 1 8 38
M  V30 43 1 9 39
M  V30 44 1 10 40
M  V30 45 1 10 41
M  V30 46 1 11 42
M  V30 47 1 12 43
M  V30 48 1 12 44
M  V30 49 1 13 45
M  V30 50 1 14 46
M  V30 51 1 14 47
M  V30 52 1 16 48
M  V30 53 1 16 49
M  V30 54 1 17 50
M  V30 55 1 18 51
M  V30 56 1 18 52
M  V30 57 1 18 53
M  V30 58 1 19 54
M  V30 59 1 19 55
M  V30 60 1 23 56
M  V30 61 1 23 57
M  V30 62 1 24 58
M  V30 63 1 24 59
M  V30 64 1 26 60
M  V30 65 1 27 61
M  V30 66 1 28 62
M  V30 67 1 29 63
M  V30 68 1 30 64
M  V30 END BOND
M  V30 END CTAB
M  END
>  <level_0>
5660

>  <index>
5660

>  <NO.>
5661

>  <Name>
nandrobolic

>  <SMILES>
CC12CCC3C4CCC(=O)C=C4CCC3C1CCC2OC(=O)CCc1ccccc1

>  <logBB>


>  <Class>
-1

>  <MW>
406.25

>  <nHBAcc>
3

>  <nHBDon>
0

>  <SLogP>
5.67

>  <TopoPSA>
43.37

>  <MMFF94 Energy>
65.536

$$$$
CC12CCC3c4ccc(O)cc4CC(CCCCCCCCC[S+]([O-])CCCC(F)(F)C(F)(F)F)C3C1CCC2O
Actelion Java MolfileCreator 2.0

  0  0  0  0  0  0              0 V3000
M  V30 BEGIN CTAB
M  V30 COUNTS 88 91 0 0 0
M  V30 BEGIN ATOM
M  V30 1 S -5.4923 -3.9554 2.824 0
M  V30 2 O -5.887 -5.0886 1.9234 0
M  V30 3 C -6.9176 -3.6171 3.9082 0
M  V30 4 C -5.5939 -2.4218 1.8409 0
M  V30 5 C -6.5508 -2.6641 5.04 0
M  V30 6 C -4.5297 -2.4226 0.7467 0
M  V30 7 C -7.7275 -2.4719 6.0039 0
M  V30 8 C -4.5836 -1.1315 -0.0728 0
M  V30 9 C -7.3807 -1.4996 7.1297 0
M  V30 10 C -3.6224 -1.1259 -1.2647 0
M  V30 11 F -7.0145 -0.3088 6.5758 0
M  V30 12 F -6.282 -1.966 7.7865 0
M  V30 13 C -8.5462 -1.3034 8.1018 0
M  V30 14 C -2.1476 -1.1514 -0.8579 0
M  V30 15 F -9.6427 -0.8182 7.4678 0
M  V30 16 F -8.9141 -2.4738 8.679 0
M  V30 17 F -8.2429 -0.4402 9.0982 0
M  V30 18 C -1.2341 -1.0266 -2.0793 0
M  V30 19 C 0.2418 -1.0606 -1.6757 0
M  V30 20 C 1.1517 -0.925 -2.8982 0
M  V30 21 C 2.6421 -1.0954 -2.5849 0
M  V30 22 C 3.2849 -0.1425 -1.5392 0
M  V30 23 C 3.928 1.14 -2.1339 0
M  V30 24 C 4.4005 -0.9545 -0.8403 0
M  V30 25 C 4.5687 2.0193 -1.0144 0
M  V30 26 C 2.9975 1.9836 -3.0377 0
M  V30 27 C 5.2888 -0.1665 0.081 0
M  V30 28 C 5.4035 1.2298 -0.0141 0
M  V30 29 C 5.3439 3.1789 -1.6778 0
M  V30 30 C 3.6983 3.2181 -3.6574 0
M  V30 31 C 1.7538 2.5862 -2.3586 0
M  V30 32 C 6.0535 -0.8743 1.0282 0
M  V30 33 C 6.236 1.8918 0.9091 0
M  V30 34 C 4.4479 4.0305 -2.5773 0
M  V30 35 C 2.4981 4.0348 -4.1949 0
M  V30 36 C 4.6704 2.8209 -4.7809 0
M  V30 37 C 1.3737 3.8264 -3.1766 0
M  V30 38 C 6.8909 -0.1942 1.9027 0
M  V30 39 C 6.9811 1.1852 1.8547 0
M  V30 40 O 2.0568 3.572 -5.4692 0
M  V30 41 O 7.6369 -0.8516 2.8343 0
M  V30 42 H -7.7466 -3.2331 3.3056 0
M  V30 43 H -7.2253 -4.583 4.3232 0
M  V30 44 H -6.5954 -2.3571 1.404 0
M  V30 45 H -5.4433 -1.5716 2.5118 0
M  V30 46 H -6.2508 -1.6915 4.6348 0
M  V30 47 H -5.6866 -3.0561 5.5906 0
M  V30 48 H -4.6759 -3.2841 0.0835 0
M  V30 49 H -3.5398 -2.5363 1.2035 0
M  V30 50 H -8.5895 -2.0912 5.4436 0
M  V30 51 H -8.0031 -3.4439 6.4295 0
M  V30 52 H -4.3708 -0.2725 0.5751 0
M  V30 53 H -5.6023 -0.993 -0.4558 0
M  V30 54 H -3.8156 -0.2211 -1.8542 0
M  V30 55 H -3.8413 -1.9799 -1.9171 0
M  V30 56 H -1.9182 -2.0861 -0.3344 0
M  V30 57 H -1.9437 -0.3291 -0.1616 0
M  V30 58 H -1.4487 -0.0879 -2.6046 0
M  V30 59 H -1.4436 -1.8448 -2.779 0
M  V30 60 H 0.4592 -2.0022 -1.1574 0
M  V30 61 H 0.4324 -0.2474 -0.9678 0
M  V30 62 H 0.9617 0.0213 -3.4075 0
M  V30 63 H 0.8791 -1.7036 -3.623 0
M  V30 64 H 2.7576 -2.1332 -2.2425 0
M  V30 65 H 3.2068 -1.0365 -3.5243 0
M  V30 66 H 2.5515 0.1494 -0.7799 0
M  V30 67 H 4.7502 0.7903 -2.777 0
M  V30 68 H 5.0466 -1.4221 -1.5958 0
M  V30 69 H 3.9283 -1.7648 -0.2688 0
M  V30 70 H 3.7657 2.4539 -0.4059 0
M  V30 71 H 2.6581 1.3468 -3.8633 0
M  V30 72 H 6.1938 2.7847 -2.2479 0
M  V30 73 H 5.7705 3.8521 -0.927 0
M  V30 74 H 1.9423 2.889 -1.325 0
M  V30 75 H 0.9194 1.8833 -2.3196 0
M  V30 76 H 5.9775 -1.9571 1.0734 0
M  V30 77 H 6.3121 2.9755 0.9196 0
M  V30 78 H 5.0543 4.8116 -3.0535 0
M  V30 79 H 3.7371 4.5639 -1.9331 0
M  V30 80 H 2.7392 5.0966 -4.3097 0
M  V30 81 H 5.0434 3.7099 -5.3017 0
M  V30 82 H 4.1901 2.1768 -5.5253 0
M  V30 83 H 5.538 2.2737 -4.4005 0
M  V30 84 H 0.399 3.6931 -3.6582 0
M  V30 85 H 1.2988 4.6895 -2.5053 0
M  V30 86 H 7.6241 1.7142 2.5519 0
M  V30 87 H 1.7396 2.6584 -5.3756 0
M  V30 88 H 7.4752 -1.8044 2.7419 0
M  V30 END ATOM
M  V30 BEGIN BOND
M  V30 1 2 1 2
M  V30 2 1 1 3
M  V30 3 1 1 4
M  V30 4 1 3 5
M  V30 5 1 4 6
M  V30 6 1 5 7
M  V30 7 1 6 8
M  V30 8 1 7 9
M  V30 9 1 8 10
M  V30 10 1 9 11
M  V30 11 1 9 12
M  V30 12 1 9 13
M  V30 13 1 10 14
M  V30 14 1 13 15
M  V30 15 1 13 16
M  V30 16 1 13 17
M  V30 17 1 14 18
M  V30 18 1 18 19
M  V30 19 1 19 20
M  V30 20 1 20 21
M  V30 21 1 21 22
M  V30 22 1 22 23
M  V30 23 1 22 24
M  V30 24 1 23 25
M  V30 25 1 23 26
M  V30 26 1 24 27
M  V30 27 1 25 28
M  V30 28 1 25 29
M  V30 29 1 26 30
M  V30 30 1 26 31
M  V30 31 1 27 32
M  V30 32 1 28 33
M  V30 33 1 29 34
M  V30 34 1 30 35
M  V30 35 1 30 36
M  V30 36 1 31 37
M  V30 37 2 32 38
M  V30 38 2 33 39
M  V30 39 1 35 40
M  V30 40 1 38 41
M  V30 41 2 27 28
M  V30 42 1 30 34
M  V30 43 1 35 37
M  V30 44 1 38 39
M  V30 45 1 3 42
M  V30 46 1 3 43
M  V30 47 1 4 44
M  V30 48 1 4 45
M  V30 49 1 5 46
M  V30 50 1 5 47
M  V30 51 1 6 48
M  V30 52 1 6 49
M  V30 53 1 7 50
M  V30 54 1 7 51
M  V30 55 1 8 52
M  V30 56 1 8 53
M  V30 57 1 10 54
M  V30 58 1 10 55
M  V30 59 1 14 56
M  V30 60 1 14 57
M  V30 61 1 18 58
M  V30 62 1 18 59
M  V30 63 1 19 60
M  V30 64 1 19 61
M  V30 65 1 20 62
M  V30 66 1 20 63
M  V30 67 1 21 64
M  V30 68 1 21 65
M  V30 69 1 22 66
M  V30 70 1 23 67
M  V30 71 1 24 68
M  V30 72 1 24 69
M  V30 73 1 25 70
M  V30 74 1 26 71
M  V30 75 1 29 72
M  V30 76 1 29 73
M  V30 77 1 31 74
M  V30 78 1 31 75
M  V30 79 1 32 76
M  V30 80 1 33 77
M  V30 81 1 34 78
M  V30 82 1 34 79
M  V30 83 1 35 80
M  V30 84 1 36 81
M  V30 85 1 36 82
M  V30 86 1 36 83
M  V30 87 1 37 84
M  V30 88 1 37 85
M  V30 89 1 39 86
M  V30 90 1 40 87
M  V30 91 1 41 88
M  V30 END BOND
M  V30 END CTAB
M  END
>  <level_0>
5661

>  <index>
5661

>  <NO.>
5662

>  <Name>
fulvestrant r enantiomer

>  <SMILES>
CC12CCC3c4ccc(O)cc4CC(CCCCCCCCC[S+]([O-])CCCC(F)(F)C(F)(F)F)C3C1CCC2O

>  <logBB>


>  <Class>
-1

>  <MW>
606.32

>  <nHBAcc>
3

>  <nHBDon>
2

>  <SLogP>
8.68

>  <TopoPSA>
63.52

>  <MMFF94 Energy>
131.06

$$$$
CC1=CC(O)CC(C)(C)C1/C=C/C(C)=C/C=C/C(C)=C/C=C/C=C(C)/C=C/C=C(C)/C=C/C1=C(C)CC(O)CC1(C)C
Actelion Java MolfileCreator 2.0

  0  0  0  0  0  0              0 V3000
M  V30 BEGIN CTAB
M  V30 COUNTS 98 99 0 0 0
M  V30 BEGIN ATOM
M  V30 1 O 1.8788 -7.9252 -7.5317 0
M  V30 2 C 0.8281 -8.556 -8.2532 0
M  V30 3 C 0.1003 -7.4905 -9.0109 0
M  V30 4 C -0.0581 -9.351 -7.2862 0
M  V30 5 C -1.2375 -7.3295 -9.0017 0
M  V30 6 C -1.479 -9.6109 -7.8407 0
M  V30 7 C -2.1585 -8.2319 -8.1812 0
M  V30 8 C -1.9026 -6.2521 -9.8144 0
M  V30 9 C -2.2825 -10.4184 -6.7983 0
M  V30 10 C -1.4016 -10.4868 -9.116 0
M  V30 11 C -2.7082 -7.5204 -6.949 0
M  V30 12 C -2.1174 -6.5328 -6.2519 0
M  V30 13 C -2.6487 -5.8588 -5.0633 0
M  V30 14 C -1.8937 -4.8964 -4.4906 0
M  V30 15 C -4.0056 -6.2936 -4.5679 0
M  V30 16 C -2.2095 -4.1018 -3.3182 0
M  V30 17 C -1.3742 -3.1657 -2.8349 0
M  V30 18 C -1.5975 -2.3126 -1.6618 0
M  V30 19 C -0.6358 -1.4249 -1.3283 0
M  V30 20 C -2.8945 -2.4932 -0.9116 0
M  V30 21 C -0.6405 -0.4895 -0.2203 0
M  V30 22 C 0.3771 0.3543 0.0195 0
M  V30 23 C 0.3724 1.2898 1.1274 0
M  V30 24 C 1.3342 2.1776 1.4607 0
M  V30 25 C 1.1113 3.0308 2.6338 0
M  V30 26 C 2.6308 2.3583 0.7101 0
M  V30 27 C 1.9469 3.9667 3.1169 0
M  V30 28 C 1.6322 4.7616 4.2892 0
M  V30 29 C 2.3891 5.7229 4.8609 0
M  V30 30 C 1.8628 6.3988 6.0499 0
M  V30 31 C 3.7465 6.157 4.3659 0
M  V30 32 C 2.462 7.378 6.7494 0
M  V30 33 C 1.8522 8.0095 7.9176 0
M  V30 34 C 1.6907 7.3354 9.0818 0
M  V30 35 C 1.3936 9.4686 7.7238 0
M  V30 36 C 0.992 7.9336 10.2876 0
M  V30 37 C 2.1838 5.93 9.3383 0
M  V30 38 C 1.0437 10.1416 9.0814 0
M  V30 39 C 2.5012 10.3431 7.0849 0
M  V30 40 C 0.1677 9.5012 6.7828 0
M  V30 41 C 0.2582 9.2504 10.0348 0
M  V30 42 O -1.0556 8.9918 9.5467 0
M  V30 43 H 2.3105 -8.6104 -6.9954 0
M  V30 44 H 1.291 -9.2368 -8.9767 0
M  V30 45 H 0.7237 -6.8305 -9.6093 0
M  V30 46 H 0.442 -10.3 -7.0505 0
M  V30 47 H -0.1196 -8.8216 -6.3255 0
M  V30 48 H -3.031 -8.4518 -8.8143 0
M  V30 49 H -2.4531 -5.5604 -9.1696 0
M  V30 50 H -1.1779 -5.6636 -10.3869 0
M  V30 51 H -2.6047 -6.696 -10.5275 0
M  V30 52 H -2.2935 -9.9292 -5.8185 0
M  V30 53 H -3.3204 -10.5565 -7.1216 0
M  V30 54 H -1.8457 -11.413 -6.6509 0
M  V30 55 H -2.4062 -10.7362 -9.4768 0
M  V30 56 H -0.8803 -11.4292 -8.9124 0
M  V30 57 H -0.8765 -9.995 -9.9399 0
M  V30 58 H -3.6794 -7.8932 -6.6321 0
M  V30 59 H -1.1356 -6.1928 -6.5832 0
M  V30 60 H -0.9257 -4.6664 -4.9384 0
M  V30 61 H -4.3502 -5.7484 -3.687 0
M  V30 62 H -4.7638 -6.1415 -5.3441 0
M  V30 63 H -3.9911 -7.3542 -4.2929 0
M  V30 64 H -3.1578 -4.2843 -2.8279 0
M  V30 65 H -0.4283 -3.0092 -3.3539 0
M  V30 66 H 0.2633 -1.3804 -1.944 0
M  V30 67 H -3.0026 -1.8309 -0.0505 0
M  V30 68 H -3.7483 -2.2923 -1.5684 0
M  V30 69 H -2.9771 -3.5169 -0.5299 0
M  V30 70 H -1.5036 -0.476 0.437 0
M  V30 71 H 1.2399 0.3408 -0.6378 0
M  V30 72 H -0.5267 1.2453 1.7433 0
M  V30 73 H 0.1653 2.8744 3.1529 0
M  V30 74 H 2.7385 1.6962 -0.151 0
M  V30 75 H 2.7132 3.3821 0.3285 0
M  V30 76 H 3.4848 2.1573 1.3666 0
M  V30 77 H 2.8951 4.1488 2.626 0
M  V30 78 H 0.6645 4.5328 4.7378 0
M  V30 79 H 0.8812 6.0689 6.393 0
M  V30 80 H 4.0889 5.6145 3.4828 0
M  V30 81 H 3.7339 7.2188 4.0952 0
M  V30 82 H 4.5049 6.001 5.1413 0
M  V30 83 H 3.4302 7.7733 6.4577 0
M  V30 84 H 0.2787 7.2007 10.6851 0
M  V30 85 H 1.7567 8.1014 11.0571 0
M  V30 86 H 2.7375 5.8942 10.2831 0
M  V30 87 H 1.3353 5.2421 9.4109 0
M  V30 88 H 2.8625 5.554 8.5688 0
M  V30 89 H 1.9722 10.4364 9.5905 0
M  V30 90 H 0.4828 11.0674 8.8989 0
M  V30 91 H 2.7246 10.041 6.0557 0
M  V30 92 H 2.1962 11.3957 7.0475 0
M  V30 93 H 3.433 10.2867 7.6597 0
M  V30 94 H -0.6152 8.8053 7.0996 0
M  V30 95 H 0.4414 9.2263 5.7573 0
M  V30 96 H -0.2712 10.5044 6.7385 0
M  V30 97 H 0.1295 9.7676 10.9929 0
M  V30 98 H -1.483 9.8488 9.3811 0
M  V30 END ATOM
M  V30 BEGIN BOND
M  V30 1 1 1 2
M  V30 2 1 2 3
M  V30 3 1 2 4
M  V30 4 2 3 5
M  V30 5 1 4 6
M  V30 6 1 5 7
M  V30 7 1 5 8
M  V30 8 1 6 9
M  V30 9 1 6 10
M  V30 10 1 7 11
M  V30 11 2 11 12
M  V30 12 1 12 13
M  V30 13 2 13 14
M  V30 14 1 13 15
M  V30 15 1 14 16
M  V30 16 2 16 17
M  V30 17 1 17 18
M  V30 18 2 18 19
M  V30 19 1 18 20
M  V30 20 1 19 21
M  V30 21 2 21 22
M  V30 22 1 22 23
M  V30 23 2 23 24
M  V30 24 1 24 25
M  V30 25 1 24 26
M  V30 26 2 25 27
M  V30 27 1 27 28
M  V30 28 2 28 29
M  V30 29 1 29 30
M  V30 30 1 29 31
M  V30 31 2 30 32
M  V30 32 1 32 33
M  V30 33 2 33 34
M  V30 34 1 33 35
M  V30 35 1 34 36
M  V30 36 1 34 37
M  V30 37 1 35 38
M  V30 38 1 35 39
M  V30 39 1 35 40
M  V30 40 1 36 41
M  V30 41 1 41 42
M  V30 42 1 6 7
M  V30 43 1 38 41
M  V30 44 1 1 43
M  V30 45 1 2 44
M  V30 46 1 3 45
M  V30 47 1 4 46
M  V30 48 1 4 47
M  V30 49 1 7 48
M  V30 50 1 8 49
M  V30 51 1 8 50
M  V30 52 1 8 51
M  V30 53 1 9 52
M  V30 54 1 9 53
M  V30 55 1 9 54
M  V30 56 1 10 55
M  V30 57 1 10 56
M  V30 58 1 10 57
M  V30 59 1 11 58
M  V30 60 1 12 59
M  V30 61 1 14 60
M  V30 62 1 15 61
M  V30 63 1 15 62
M  V30 64 1 15 63
M  V30 65 1 16 64
M  V30 66 1 17 65
M  V30 67 1 19 66
M  V30 68 1 20 67
M  V30 69 1 20 68
M  V30 70 1 20 69
M  V30 71 1 21 70
M  V30 72 1 22 71
M  V30 73 1 23 72
M  V30 74 1 25 73
M  V30 75 1 26 74
M  V30 76 1 26 75
M  V30 77 1 26 76
M  V30 78 1 27 77
M  V30 79 1 28 78
M  V30 80 1 30 79
M  V30 81 1 31 80
M  V30 82 1 31 81
M  V30 83 1 31 82
M  V30 84 1 32 83
M  V30 85 1 36 84
M  V30 86 1 36 85
M  V30 87 1 37 86
M  V30 88 1 37 87
M  V30 89 1 37 88
M  V30 90 1 38 89
M  V30 91 1 38 90
M  V30 92 1 39 91
M  V30 93 1 39 92
M  V30 94 1 39 93
M  V30 95 1 40 94
M  V30 96 1 40 95
M  V30 97 1 40 96
M  V30 98 1 41 97
M  V30 99 1 42 98
M  V30 END BOND
M  V30 END CTAB
M  END
>  <level_0>
5665

>  <index>
5665

>  <NO.>
5666

>  <Name>
xanthophyll

>  <SMILES>
CC1=CC(O)CC(C)(C)C1/C=C/C(C)=C/C=C/C(C)=C/C=C/C=C(C)/C=C/C=C(C)/C=C/C1=C(C)CC(O)CC1(C)C

>  <logBB>


>  <Class>
-1

>  <MW>
568.43

>  <nHBAcc>
2

>  <nHBDon>
2

>  <SLogP>
10.4

>  <TopoPSA>
40.46

>  <MMFF94 Energy>
103.52

$$$$
CC1C/C=C\C=C\C=C/C=C\C(OC2OC(C)C(O)C(N)C2O)CC2OC(O)(CC(O)CC3OC3/C=C\C(=O)O1)CC(O)C2C(=O)O
Actelion Java MolfileCreator 2.0

  0  0  0  0  0  0              0 V3000
M  V30 BEGIN CTAB
M  V30 COUNTS 94 97 0 0 0
M  V30 BEGIN ATOM
M  V30 1 O 2.7857 -6.2962 1.0339 0
M  V30 2 C 2.3589 -5.2982 1.5972 0
M  V30 3 O 3.0429 -4.1527 1.8186 0
M  V30 4 C 0.9851 -5.2548 2.1424 0
M  V30 5 C 4.4026 -4.1133 1.3309 0
M  V30 6 C 0.265 -4.1778 2.4976 0
M  V30 7 C 4.8005 -2.6289 1.1741 0
M  V30 8 C 5.3114 -4.8366 2.326 0
M  V30 9 C 0.6527 -2.7664 2.4386 0
M  V30 10 C 6.0105 -2.4371 0.2919 0
M  V30 11 O 1.0724 -2.0525 3.6099 0
M  V30 12 C -0.2242 -1.7215 3.0947 0
M  V30 13 C 6.1814 -1.5301 -0.6837 0
M  V30 14 C -0.3078 -0.3405 2.5238 0
M  V30 15 C 5.2728 -0.4572 -1.0183 0
M  V30 16 C -1.5877 -0.0766 1.7237 0
M  V30 17 C 5.3112 0.1895 -2.194 0
M  V30 18 O -2.6692 0.1629 2.6302 0
M  V30 19 C -1.9622 -1.1797 0.7137 0
M  V30 20 C 4.4709 1.3074 -2.577 0
M  V30 21 C -2.9897 -0.6798 -0.3201 0
M  V30 22 C 3.1429 1.4667 -2.4405 0
M  V30 23 O -2.4331 0.4476 -0.9813 0
M  V30 24 O -4.135 -0.214 0.3955 0
M  V30 25 C -3.4249 -1.7859 -1.2926 0
M  V30 26 C 2.2223 0.5323 -1.8376 0
M  V30 27 C -1.9752 0.2284 -2.3102 0
M  V30 28 C -4.0882 -1.1617 -2.5251 0
M  V30 29 C 0.9163 0.7162 -1.5913 0
M  V30 30 C -3.1996 -0.0885 -3.1844 0
M  V30 31 C -1.2048 1.4864 -2.7702 0
M  V30 32 O -5.3263 -0.572 -2.0982 0
M  V30 33 C 0.0184 1.8849 -1.9031 0
M  V30 34 C -2.7647 -0.5937 -4.5338 0
M  V30 35 O -0.356 2.4237 -0.633 0
M  V30 36 O -1.7114 -1.1422 -4.8051 0
M  V30 37 O -3.7078 -0.4074 -5.4775 0
M  V30 38 C -0.6738 3.8119 -0.6479 0
M  V30 39 O -2.0818 4.048 -0.7919 0
M  V30 40 C -0.1702 4.495 0.6434 0
M  V30 41 C -2.8623 3.5039 0.2829 0
M  V30 42 O -0.3599 5.9236 0.5526 0
M  V30 43 C -0.9295 3.9438 1.8643 0
M  V30 44 C -2.4533 4.0756 1.6523 0
M  V30 45 C -4.3278 3.7918 -0.0271 0
M  V30 46 N -0.5166 4.6187 3.116 0
M  V30 47 O -3.1544 3.4255 2.7201 0
M  V30 48 H 0.5349 -6.2403 2.2206 0
M  V30 49 H 4.4494 -4.6021 0.349 0
M  V30 50 H -0.7381 -4.3724 2.874 0
M  V30 51 H 5.0021 -2.1943 2.1609 0
M  V30 52 H 3.9377 -2.0829 0.775 0
M  V30 53 H 5.0103 -5.8823 2.4449 0
M  V30 54 H 6.3574 -4.8224 2.0079 0
M  V30 55 H 5.2406 -4.3793 3.3193 0
M  V30 56 H 1.1226 -2.4786 1.5019 0
M  V30 57 H 6.8251 -3.1434 0.4464 0
M  V30 58 H -1.0767 -1.9949 3.7014 0
M  V30 59 H 7.0994 -1.5808 -1.2689 0
M  V30 60 H -0.2434 0.376 3.3519 0
M  V30 61 H 0.5561 -0.1567 1.8727 0
M  V30 62 H 4.5555 -0.1598 -0.2577 0
M  V30 63 H -1.4236 0.8647 1.1987 0
M  V30 64 H 6.0587 -0.0854 -2.9367 0
M  V30 65 H -3.4848 0.1618 2.0793 0
M  V30 66 H -1.0591 -1.5112 0.1895 0
M  V30 67 H -2.3891 -2.0336 1.2542 0
M  V30 68 H 5.0191 2.1046 -3.0806 0
M  V30 69 H 2.7256 2.3991 -2.8129 0
M  V30 70 H -4.8432 -0.1405 -0.2801 0
M  V30 71 H -2.5616 -2.3788 -1.6181 0
M  V30 72 H -4.127 -2.464 -0.7922 0
M  V30 73 H 2.6384 -0.4227 -1.523 0
M  V30 74 H -1.2814 -0.6207 -2.319 0
M  V30 75 H -4.353 -1.9641 -3.2237 0
M  V30 76 H 0.4324 -0.0917 -1.0484 0
M  V30 77 H -3.7726 0.8364 -3.3331 0
M  V30 78 H -1.9019 2.3323 -2.7913 0
M  V30 79 H -0.8559 1.3288 -3.7981 0
M  V30 80 H -5.8134 -0.3029 -2.9008 0
M  V30 81 H 0.5854 2.6393 -2.4583 0
M  V30 82 H -3.3127 -0.765 -6.3025 0
M  V30 83 H -0.1947 4.3172 -1.4948 0
M  V30 84 H 0.9033 4.3124 0.7679 0
M  V30 85 H -2.7519 2.4206 0.299 0
M  V30 86 H -1.2132 6.0695 0.1023 0
M  V30 87 H -0.6804 2.886 1.9989 0
M  V30 88 H -2.7293 5.1373 1.6913 0
M  V30 89 H -4.598 3.3735 -1.003 0
M  V30 90 H -4.9923 3.3627 0.7286 0
M  V30 91 H -4.5104 4.8704 -0.0856 0
M  V30 92 H -1.2567 4.4792 3.809 0
M  V30 93 H -0.4893 5.6252 2.935 0
M  V30 94 H -2.841 2.4996 2.7759 0
M  V30 END ATOM
M  V30 BEGIN BOND
M  V30 1 2 1 2
M  V30 2 1 2 3
M  V30 3 1 2 4
M  V30 4 1 3 5
M  V30 5 2 4 6
M  V30 6 1 5 7
M  V30 7 1 5 8
M  V30 8 1 6 9
M  V30 9 1 7 10
M  V30 10 1 9 11
M  V30 11 1 9 12
M  V30 12 2 10 13
M  V30 13 1 12 14
M  V30 14 1 13 15
M  V30 15 1 14 16
M  V30 16 2 15 17
M  V30 17 1 16 18
M  V30 18 1 16 19
M  V30 19 1 17 20
M  V30 20 1 19 21
M  V30 21 2 20 22
M  V30 22 1 21 23
M  V30 23 1 21 24
M  V30 24 1 21 25
M  V30 25 1 22 26
M  V30 26 1 23 27
M  V30 27 1 25 28
M  V30 28 2 26 29
M  V30 29 1 27 30
M  V30 30 1 27 31
M  V30 31 1 28 32
M  V30 32 1 29 33
M  V30 33 1 30 34
M  V30 34 1 33 35
M  V30 35 2 34 36
M  V30 36 1 34 37
M  V30 37 1 35 38
M  V30 38 1 38 39
M  V30 39 1 38 40
M  V30 40 1 39 41
M  V30 41 1 40 42
M  V30 42 1 40 43
M  V30 43 1 41 44
M  V30 44 1 41 45
M  V30 45 1 43 46
M  V30 46 1 44 47
M  V30 47 1 11 12
M  V30 48 1 28 30
M  V30 49 1 31 33
M  V30 50 1 43 44
M  V30 51 1 4 48
M  V30 52 1 5 49
M  V30 53 1 6 50
M  V30 54 1 7 51
M  V30 55 1 7 52
M  V30 56 1 8 53
M  V30 57 1 8 54
M  V30 58 1 8 55
M  V30 59 1 9 56
M  V30 60 1 10 57
M  V30 61 1 12 58
M  V30 62 1 13 59
M  V30 63 1 14 60
M  V30 64 1 14 61
M  V30 65 1 15 62
M  V30 66 1 16 63
M  V30 67 1 17 64
M  V30 68 1 18 65
M  V30 69 1 19 66
M  V30 70 1 19 67
M  V30 71 1 20 68
M  V30 72 1 22 69
M  V30 73 1 24 70
M  V30 74 1 25 71
M  V30 75 1 25 72
M  V30 76 1 26 73
M  V30 77 1 27 74
M  V30 78 1 28 75
M  V30 79 1 29 76
M  V30 80 1 30 77
M  V30 81 1 31 78
M  V30 82 1 31 79
M  V30 83 1 32 80
M  V30 84 1 33 81
M  V30 85 1 37 82
M  V30 86 1 38 83
M  V30 87 1 40 84
M  V30 88 1 41 85
M  V30 89 1 42 86
M  V30 90 1 43 87
M  V30 91 1 44 88
M  V30 92 1 45 89
M  V30 93 1 45 90
M  V30 94 1 45 91
M  V30 95 1 46 92
M  V30 96 1 46 93
M  V30 97 1 47 94
M  V30 END BOND
M  V30 END CTAB
M  END
>  <level_0>
5666

>  <index>
5666

>  <NO.>
5667

>  <Name>
natamycin

>  <SMILES>
CC1C/C=C\C=C\C=C/C=C\C(OC2OC(C)C(O)C(N)C2O)CC2OC(O)(CC(O)CC3OC3/C=C\C(=O)O1)CC(O)C2C(=O)O

>  <logBB>


>  <Class>
-1

>  <MW>
665.3

>  <nHBAcc>
13

>  <nHBDon>
7

>  <SLogP>
0.12

>  <TopoPSA>
230.99

>  <MMFF94 Energy>
84.395

$$$$
CC1OC(OC2CC(O)C3(CO)C4C(O)CC5(C)C(C6=CC(=O)OC6)CCC5(O)C4CCC3(O)C2)C(O)C(O)C1O
Actelion Java MolfileCreator 2.0

  0  0  0  0  0  0              0 V3000
M  V30 BEGIN CTAB
M  V30 COUNTS 85 90 0 0 0
M  V30 BEGIN ATOM
M  V30 1 O 6.7038 4.5193 4.8427 0
M  V30 2 C 5.7168 4.8599 4.2175 0
M  V30 3 O 4.8967 5.8986 4.5288 0
M  V30 4 C 5.2232 4.2067 3.0085 0
M  V30 5 C 3.8508 5.9741 3.5618 0
M  V30 6 C 4.1158 4.8479 2.6332 0
M  V30 7 C 3.2182 4.5992 1.4457 0
M  V30 8 C 2.0498 3.5668 1.6344 0
M  V30 9 C 3.9813 4.084 0.2001 0
M  V30 10 C 2.6653 2.2386 1.1323 0
M  V30 11 C 0.8885 3.9766 0.7014 0
M  V30 12 C 1.517 3.4905 3.0771 0
M  V30 13 C 3.4828 2.6643 -0.0955 0
M  V30 14 O 3.6138 1.7414 2.0879 0
M  V30 15 C 1.6224 1.119 0.8684 0
M  V30 16 C -0.1885 2.9082 0.4897 0
M  V30 17 C 0.3877 1.5523 0.0095 0
M  V30 18 C 2.3088 -0.1394 0.2898 0
M  V30 19 O -1.0259 3.4842 -0.5125 0
M  V30 20 C -0.6417 0.3222 -0.1413 0
M  V30 21 C 1.3494 -1.2951 0.0064 0
M  V30 22 C 0.15 -0.8488 -0.8473 0
M  V30 23 C -1.8754 0.6669 -1.0438 0
M  V30 24 C -1.1654 -0.1663 1.2578 0
M  V30 25 O 0.7334 -0.4081 -2.0876 0
M  V30 26 C -0.7314 -2.0647 -1.1799 0
M  V30 27 O -2.7456 1.634 -0.4456 0
M  V30 28 C -2.74 -0.5493 -1.386 0
M  V30 29 O -2.0201 0.7913 1.8749 0
M  V30 30 C -1.9561 -1.6941 -2.0222 0
M  V30 31 O -2.8653 -2.7927 -2.1418 0
M  V30 32 C -2.3788 -3.8721 -2.9496 0
M  V30 33 O -1.7364 -4.8514 -2.1244 0
M  V30 34 C -3.5369 -4.5095 -3.7403 0
M  V30 35 C -2.6239 -5.4379 -1.1595 0
M  V30 36 O -4.2053 -3.5561 -4.5796 0
M  V30 37 C -4.5388 -5.1408 -2.7691 0
M  V30 38 C -3.8263 -6.1269 -1.8362 0
M  V30 39 C -1.7922 -6.3998 -0.3187 0
M  V30 40 O -5.5463 -5.8304 -3.5324 0
M  V30 41 O -3.4326 -7.2525 -2.6435 0
M  V30 42 H 5.7049 3.3543 2.5629 0
M  V30 43 H 3.9039 6.9435 3.0568 0
M  V30 44 H 2.8903 5.8809 4.0747 0
M  V30 45 H 2.7977 5.5803 1.1815 0
M  V30 46 H 5.0697 4.0972 0.319 0
M  V30 47 H 3.7656 4.7271 -0.6624 0
M  V30 48 H 1.2697 4.2791 -0.2841 0
M  V30 49 H 0.4094 4.8888 1.086 0
M  V30 50 H 1.0803 4.4479 3.3823 0
M  V30 51 H 0.7357 2.7309 3.1809 0
M  V30 52 H 2.2971 3.2373 3.8014 0
M  V30 53 H 2.8768 2.6805 -1.0077 0
M  V30 54 H 4.3364 2.0015 -0.2767 0
M  V30 55 H 3.134 1.4013 2.8615 0
M  V30 56 H 1.254 0.833 1.8602 0
M  V30 57 H -0.7699 2.8024 1.408 0
M  V30 58 H 0.7543 1.7547 -1.0068 0
M  V30 59 H 3.0823 -0.4978 0.9797 0
M  V30 60 H 2.8266 0.1167 -0.6422 0
M  V30 61 H -1.8773 2.9966 -0.506 0
M  V30 62 H 1.0226 -1.7493 0.948 0
M  V30 63 H 1.9164 -2.0705 -0.5259 0
M  V30 64 H -1.5299 1.1179 -1.9806 0
M  V30 65 H -0.3629 -0.3862 1.9628 0
M  V30 66 H -1.7494 -1.0857 1.1659 0
M  V30 67 H 0.0747 0.0131 -2.6624 0
M  V30 68 H -0.1347 -2.7941 -1.7427 0
M  V30 69 H -1.0505 -2.5884 -0.2708 0
M  V30 70 H -2.8639 1.3767 0.4967 0
M  V30 71 H -3.5483 -0.2425 -2.0644 0
M  V30 72 H -3.2773 -0.904 -0.4963 0
M  V30 73 H -2.2393 0.4513 2.7637 0
M  V30 74 H -1.6479 -1.3799 -3.0274 0
M  V30 75 H -1.6434 -3.4965 -3.671 0
M  V30 76 H -3.1393 -5.2838 -4.4078 0
M  V30 77 H -2.991 -4.647 -0.4931 0
M  V30 78 H -5.0705 -3.9608 -4.7895 0
M  V30 79 H -5.0562 -4.3636 -2.1952 0
M  V30 80 H -4.5309 -6.5108 -1.0899 0
M  V30 81 H -1.272 -7.1342 -0.9425 0
M  V30 82 H -2.4107 -6.9261 0.4143 0
M  V30 83 H -1.012 -5.8489 0.2185 0
M  V30 84 H -5.1403 -6.6932 -3.7601 0
M  V30 85 H -2.9911 -7.8982 -2.0641 0
M  V30 END ATOM
M  V30 BEGIN BOND
M  V30 1 2 1 2
M  V30 2 1 2 3
M  V30 3 1 2 4
M  V30 4 1 3 5
M  V30 5 2 4 6
M  V30 6 1 6 7
M  V30 7 1 7 8
M  V30 8 1 7 9
M  V30 9 1 8 10
M  V30 10 1 8 11
M  V30 11 1 8 12
M  V30 12 1 9 13
M  V30 13 1 10 14
M  V30 14 1 10 15
M  V30 15 1 11 16
M  V30 16 1 15 17
M  V30 17 1 15 18
M  V30 18 1 16 19
M  V30 19 1 17 20
M  V30 20 1 18 21
M  V30 21 1 20 22
M  V30 22 1 20 23
M  V30 23 1 20 24
M  V30 24 1 22 25
M  V30 25 1 22 26
M  V30 26 1 23 27
M  V30 27 1 23 28
M  V30 28 1 24 29
M  V30 29 1 26 30
M  V30 30 1 30 31
M  V30 31 1 31 32
M  V30 32 1 32 33
M  V30 33 1 32 34
M  V30 34 1 33 35
M  V30 35 1 34 36
M  V30 36 1 34 37
M  V30 37 1 35 38
M  V30 38 1 35 39
M  V30 39 1 37 40
M  V30 40 1 38 41
M  V30 41 1 5 6
M  V30 42 1 10 13
M  V30 43 1 16 17
M  V30 44 1 21 22
M  V30 45 1 28 30
M  V30 46 1 37 38
M  V30 47 1 4 42
M  V30 48 1 5 43
M  V30 49 1 5 44
M  V30 50 1 7 45
M  V30 51 1 9 46
M  V30 52 1 9 47
M  V30 53 1 11 48
M  V30 54 1 11 49
M  V30 55 1 12 50
M  V30 56 1 12 51
M  V30 57 1 12 52
M  V30 58 1 13 53
M  V30 59 1 13 54
M  V30 60 1 14 55
M  V30 61 1 15 56
M  V30 62 1 16 57
M  V30 63 1 17 58
M  V30 64 1 18 59
M  V30 65 1 18 60
M  V30 66 1 19 61
M  V30 67 1 21 62
M  V30 68 1 21 63
M  V30 69 1 23 64
M  V30 70 1 24 65
M  V30 71 1 24 66
M  V30 72 1 25 67
M  V30 73 1 26 68
M  V30 74 1 26 69
M  V30 75 1 27 70
M  V30 76 1 28 71
M  V30 77 1 28 72
M  V30 78 1 29 73
M  V30 79 1 30 74
M  V30 80 1 32 75
M  V30 81 1 34 76
M  V30 82 1 35 77
M  V30 83 1 36 78
M  V30 84 1 37 79
M  V30 85 1 38 80
M  V30 86 1 39 81
M  V30 87 1 39 82
M  V30 88 1 39 83
M  V30 89 1 40 84
M  V30 90 1 41 85
M  V30 END BOND
M  V30 END CTAB
M  END
>  <level_0>
5676

>  <index>
5676

>  <NO.>
5677

>  <Name>
mls002702983

>  <SMILES>
CC1OC(OC2CC(O)C3(CO)C4C(O)CC5(C)C(C6=CC(=O)OC6)CCC5(O)C4CCC3(O)C2)C(O)C(O)C1O

>  <logBB>


>  <Class>
-1

>  <MW>
584.28

>  <nHBAcc>
12

>  <nHBDon>
8

>  <SLogP>
-1.51

>  <TopoPSA>
206.6

>  <MMFF94 Energy>
170.25

$$$$
CCC(C)(Oc1ccc(C2(c3ccc(OC(C)(CC)C(=O)O)cc3)CCCCC2)cc1)C(=O)O
Actelion Java MolfileCreator 2.0

  0  0  0  0  0  0              0 V3000
M  V30 BEGIN CTAB
M  V30 COUNTS 70 72 0 0 0
M  V30 BEGIN ATOM
M  V30 1 O 0.1586 3.4149 -6.7591 0
M  V30 2 C -0.2438 3.9271 -5.7237 0
M  V30 3 O -0.5401 5.2454 -5.7314 0
M  V30 4 C -0.4011 3.2439 -4.3518 0
M  V30 5 O -0.8103 1.9004 -4.7399 0
M  V30 6 C 0.9745 3.2911 -3.6394 0
M  V30 7 C -1.5237 3.9011 -3.5385 0
M  V30 8 C -0.6298 0.906 -3.826 0
M  V30 9 C 1.4775 4.6824 -3.2716 0
M  V30 10 C 0.4602 0.0557 -3.9757 0
M  V30 11 C -1.5627 0.6679 -2.8272 0
M  V30 12 C 0.6589 -0.9991 -3.0785 0
M  V30 13 C -1.3649 -0.3862 -1.9307 0
M  V30 14 C -0.2491 -1.245 -2.0334 0
M  V30 15 C -0.0642 -2.3959 -0.9978 0
M  V30 16 C 0.1244 -1.7464 0.4016 0
M  V30 17 C -1.316 -3.3354 -1.1245 0
M  V30 18 C 1.1736 -3.3022 -1.3278 0
M  V30 19 C -0.8592 -1.7738 1.4028 0
M  V30 20 C 1.3 -1.0303 0.6915 0
M  V30 21 C -1.2336 -4.6429 -0.3259 0
M  V30 22 C 1.2717 -4.5537 -0.4539 0
M  V30 23 C -0.6635 -1.1583 2.6504 0
M  V30 24 C 1.4927 -0.4173 1.9343 0
M  V30 25 C 0.0366 -5.4255 -0.6193 0
M  V30 26 C 0.5162 -0.4797 2.9273 0
M  V30 27 O 0.8572 0.1636 4.0781 0
M  V30 28 C 4.0E-4 0.2296 5.2219 0
M  V30 29 C -0.4901 -1.1288 5.7652 0
M  V30 30 C 0.872 0.8314 6.3625 0
M  V30 31 C -1.1882 1.1681 4.948 0
M  V30 32 O -1.6293 -1.4058 6.1117 0
M  V30 33 O 0.481 -2.0629 5.8512 0
M  V30 34 C 1.4367 2.22 6.0773 0
M  V30 35 H -0.3763 5.507 -6.6624 0
M  V30 36 H 1.7296 2.8051 -4.271 0
M  V30 37 H 0.9355 2.7047 -2.7132 0
M  V30 38 H -1.3858 4.9805 -3.4208 0
M  V30 39 H -2.4961 3.7393 -4.018 0
M  V30 40 H -1.5854 3.4753 -2.5319 0
M  V30 41 H 2.4467 4.6034 -2.7676 0
M  V30 42 H 1.6195 5.3089 -4.1565 0
M  V30 43 H 0.7925 5.1909 -2.5872 0
M  V30 44 H 1.1637 0.2156 -4.7888 0
M  V30 45 H -2.4506 1.2854 -2.7385 0
M  V30 46 H 1.5403 -1.6157 -3.2271 0
M  V30 47 H -2.0989 -0.5289 -1.1403 0
M  V30 48 H -2.2438 -2.8196 -0.8494 0
M  V30 49 H -1.4427 -3.6071 -2.1832 0
M  V30 50 H 1.1081 -3.6436 -2.3709 0
M  V30 51 H 2.1187 -2.7524 -1.2538 0
M  V30 52 H -1.8147 -2.2652 1.2428 0
M  V30 53 H 2.0833 -0.9207 -0.0548 0
M  V30 54 H -1.2881 -4.4423 0.7488 0
M  V30 55 H -2.1045 -5.2648 -0.5649 0
M  V30 56 H 2.1599 -5.1282 -0.7417 0
M  V30 57 H 1.4013 -4.2787 0.599 0
M  V30 58 H -1.4733 -1.2363 3.3659 0
M  V30 59 H 2.418 0.1221 2.1235 0
M  V30 60 H 0.1009 -6.2931 0.0469 0
M  V30 61 H -0.0031 -5.8144 -1.6443 0
M  V30 62 H 0.2989 0.8664 7.2982 0
M  V30 63 H 1.7286 0.169 6.5471 0
M  V30 64 H -1.9443 0.702 4.3096 0
M  V30 65 H -0.868 2.0781 4.4292 0
M  V30 66 H -1.6958 1.4505 5.8773 0
M  V30 67 H 0.0256 -2.8654 6.1789 0
M  V30 68 H 2.0962 2.5278 6.8956 0
M  V30 69 H 2.0228 2.2338 5.1535 0
M  V30 70 H 0.6427 2.9681 5.9978 0
M  V30 END ATOM
M  V30 BEGIN BOND
M  V30 1 2 1 2
M  V30 2 1 2 3
M  V30 3 1 2 4
M  V30 4 1 4 5
M  V30 5 1 4 6
M  V30 6 1 4 7
M  V30 7 1 5 8
M  V30 8 1 6 9
M  V30 9 2 8 10
M  V30 10 1 8 11
M  V30 11 1 10 12
M  V30 12 2 11 13
M  V30 13 2 12 14
M  V30 14 1 14 15
M  V30 15 1 15 16
M  V30 16 1 15 17
M  V30 17 1 15 18
M  V30 18 2 16 19
M  V30 19 1 16 20
M  V30 20 1 17 21
M  V30 21 1 18 22
M  V30 22 1 19 23
M  V30 23 2 20 24
M  V30 24 1 21 25
M  V30 25 2 23 26
M  V30 26 1 26 27
M  V30 27 1 27 28
M  V30 28 1 28 29
M  V30 29 1 28 30
M  V30 30 1 28 31
M  V30 31 2 29 32
M  V30 32 1 29 33
M  V30 33 1 30 34
M  V30 34 1 13 14
M  V30 35 1 22 25
M  V30 36 1 24 26
M  V30 37 1 3 35
M  V30 38 1 6 36
M  V30 39 1 6 37
M  V30 40 1 7 38
M  V30 41 1 7 39
M  V30 42 1 7 40
M  V30 43 1 9 41
M  V30 44 1 9 42
M  V30 45 1 9 43
M  V30 46 1 10 44
M  V30 47 1 11 45
M  V30 48 1 12 46
M  V30 49 1 13 47
M  V30 50 1 17 48
M  V30 51 1 17 49
M  V30 52 1 18 50
M  V30 53 1 18 51
M  V30 54 1 19 52
M  V30 55 1 20 53
M  V30 56 1 21 54
M  V30 57 1 21 55
M  V30 58 1 22 56
M  V30 59 1 22 57
M  V30 60 1 23 58
M  V30 61 1 24 59
M  V30 62 1 25 60
M  V30 63 1 25 61
M  V30 64 1 30 62
M  V30 65 1 30 63
M  V30 66 1 31 64
M  V30 67 1 31 65
M  V30 68 1 31 66
M  V30 69 1 33 67
M  V30 70 1 34 68
M  V30 71 1 34 69
M  V30 72 1 34 70
M  V30 END BOND
M  V30 END CTAB
M  END
>  <level_0>
5680

>  <index>
5680

>  <NO.>
5681

>  <Name>
clinofibrate

>  <SMILES>
CCC(C)(Oc1ccc(C2(c3ccc(OC(C)(CC)C(=O)O)cc3)CCCCC2)cc1)C(=O)O

>  <logBB>


>  <Class>
-1

>  <MW>
468.25

>  <nHBAcc>
4

>  <nHBDon>
2

>  <SLogP>
6.2

>  <TopoPSA>
93.06

>  <MMFF94 Energy>
116.69

$$$$
CCC(CC)(CC(=O)Nc1cccc(/C=C/c2nc(C3CCC3)cs2)c1)C(=O)O
Actelion Java MolfileCreator 2.0

  0  0  0  0  0  0              0 V3000
M  V30 BEGIN CTAB
M  V30 COUNTS 57 59 0 0 0
M  V30 BEGIN ATOM
M  V30 1 S 1.845 -5.4625 -1.4437 0
M  V30 2 C 0.8029 -4.2598 -0.75 0
M  V30 3 C 1.1967 -6.649 -0.3987 0
M  V30 4 N 0.0223 -4.7307 0.2071 0
M  V30 5 C 0.7877 -2.895 -1.17 0
M  V30 6 C 0.2408 -6.0771 0.4077 0
M  V30 7 C 1.5754 -2.3636 -2.1193 0
M  V30 8 C -0.5509 -6.9071 1.4775 0
M  V30 9 C 1.5124 -0.9479 -2.5142 0
M  V30 10 C -1.3877 -6.0811 2.4838 0
M  V30 11 C -1.8864 -7.4943 0.9595 0
M  V30 12 C 1.3921 0.0851 -1.5724 0
M  V30 13 C 1.6297 -0.6173 -3.8677 0
M  V30 14 C -2.6031 -6.2673 1.5552 0
M  V30 15 C 1.3539 1.4291 -1.9716 0
M  V30 16 C 1.6004 0.7174 -4.2718 0
M  V30 17 N 1.2288 2.3965 -0.9549 0
M  V30 18 C 1.4619 1.7368 -3.3271 0
M  V30 19 C 0.9472 3.7392 -1.1001 0
M  V30 20 O 0.7476 4.3298 -2.157 0
M  V30 21 C 0.8863 4.4918 0.2253 0
M  V30 22 C -0.434 4.3173 1.0247 0
M  V30 23 C -0.4456 2.9341 1.6783 0
M  V30 24 C -1.696 4.429 0.1201 0
M  V30 25 C -0.4974 5.3864 2.1577 0
M  V30 26 O 0.4318 2.0873 1.5905 0
M  V30 27 O -1.5442 2.6883 2.4154 0
M  V30 28 C -1.889 5.7658 -0.587 0
M  V30 29 C 0.6351 5.3248 3.1796 0
M  V30 30 H 1.5351 -7.6744 -0.4262 0
M  V30 31 H 0.0569 -2.2741 -0.6588 0
M  V30 32 H 2.2984 -2.9578 -2.6709 0
M  V30 33 H 0.0983 -7.6459 1.962 0
M  V30 34 H -1.0811 -5.0467 2.6611 0
M  V30 35 H -1.5041 -6.5754 3.4561 0
M  V30 36 H -1.9876 -7.617 -0.1224 0
M  V30 37 H -2.1613 -8.4389 1.4438 0
M  V30 38 H 1.3317 -0.1595 -0.5141 0
M  V30 39 H 1.7366 -1.3944 -4.621 0
M  V30 40 H -2.7456 -5.4483 0.8414 0
M  V30 41 H -3.5539 -6.4702 2.0546 0
M  V30 42 H 1.6869 0.969 -5.3259 0
M  V30 43 H 1.288 2.0449 0.0013 0
M  V30 44 H 1.4536 2.7634 -3.6803 0
M  V30 45 H 1.7542 4.1817 0.8216 0
M  V30 46 H 1.047 5.5529 -0.0063 0
M  V30 47 H -2.5979 4.2443 0.7187 0
M  V30 48 H -1.6853 3.6295 -0.6313 0
M  V30 49 H -1.4479 5.297 2.6994 0
M  V30 50 H -0.4869 6.3917 1.7199 0
M  V30 51 H -1.4214 1.7822 2.7688 0
M  V30 52 H -2.7512 5.7063 -1.2595 0
M  V30 53 H -2.0906 6.5699 0.1265 0
M  V30 54 H -1.0205 6.0469 -1.1866 0
M  V30 55 H 1.6069 5.5175 2.7166 0
M  V30 56 H 0.4815 6.0903 3.9477 0
M  V30 57 H 0.6747 4.3551 3.6839 0
M  V30 END ATOM
M  V30 BEGIN BOND
M  V30 1 1 1 2
M  V30 2 1 1 3
M  V30 3 2 2 4
M  V30 4 1 2 5
M  V30 5 2 3 6
M  V30 6 2 5 7
M  V30 7 1 6 8
M  V30 8 1 7 9
M  V30 9 1 8 10
M  V30 10 1 8 11
M  V30 11 2 9 12
M  V30 12 1 9 13
M  V30 13 1 10 14
M  V30 14 1 12 15
M  V30 15 2 13 16
M  V30 16 1 15 17
M  V30 17 2 15 18
M  V30 18 1 17 19
M  V30 19 2 19 20
M  V30 20 1 19 21
M  V30 21 1 21 22
M  V30 22 1 22 23
M  V30 23 1 22 24
M  V30 24 1 22 25
M  V30 25 2 23 26
M  V30 26 1 23 27
M  V30 27 1 24 28
M  V30 28 1 25 29
M  V30 29 1 4 6
M  V30 30 1 11 14
M  V30 31 1 16 18
M  V30 32 1 3 30
M  V30 33 1 5 31
M  V30 34 1 7 32
M  V30 35 1 8 33
M  V30 36 1 10 34
M  V30 37 1 10 35
M  V30 38 1 11 36
M  V30 39 1 11 37
M  V30 40 1 12 38
M  V30 41 1 13 39
M  V30 42 1 14 40
M  V30 43 1 14 41
M  V30 44 1 16 42
M  V30 45 1 17 43
M  V30 46 1 18 44
M  V30 47 1 21 45
M  V30 48 1 21 46
M  V30 49 1 24 47
M  V30 50 1 24 48
M  V30 51 1 25 49
M  V30 52 1 25 50
M  V30 53 1 27 51
M  V30 54 1 28 52
M  V30 55 1 28 53
M  V30 56 1 28 54
M  V30 57 1 29 55
M  V30 58 1 29 56
M  V30 59 1 29 57
M  V30 END BOND
M  V30 END CTAB
M  END
>  <level_0>
5681

>  <index>
5681

>  <NO.>
5682

>  <Name>
cinalukast

>  <SMILES>
CCC(CC)(CC(=O)Nc1cccc(/C=C/c2nc(C3CCC3)cs2)c1)C(=O)O

>  <logBB>


>  <Class>
-1

>  <MW>
412.18

>  <nHBAcc>
4

>  <nHBDon>
2

>  <SLogP>
5.8

>  <TopoPSA>
79.29

>  <MMFF94 Energy>
-4.8439

$$$$
CCC1CCCC(OC2CCC(N(C)C)C(C)O2)C(C)C(=O)C2=CC3C(C=C(C)C4CC(OC5OC(C)C(OC)C(OC)C5OC)CC43)C2CC(=O)O1
Actelion Java MolfileCreator 2.0

  0  0  0  0  0  0              0 V3000
M  V30 BEGIN CTAB
M  V30 COUNTS 120 125 0 0 0
M  V30 BEGIN ATOM
M  V30 1 O -2.712 -0.7173 2.5523 0
M  V30 2 C -2.307 -0.3393 1.4547 0
M  V30 3 C -1.7725 -1.3681 0.5167 0
M  V30 4 C -2.3077 1.1346 1.0431 0
M  V30 5 C -1.0482 -1.1598 -0.5924 0
M  V30 6 C -1.8982 -2.8423 0.8327 0
M  V30 7 C -3.6426 1.8522 1.3943 0
M  V30 8 C -1.0839 1.8088 1.6632 0
M  V30 9 C -0.5504 -2.4606 -1.1763 0
M  V30 10 C -0.684 -3.4115 0.0438 0
M  V30 11 C -3.2027 -3.4785 0.3278 0
M  V30 12 O -3.6655 2.128 2.8004 0
M  V30 13 C -4.8916 1.0452 0.9668 0
M  V30 14 C 0.8596 -2.4949 -1.7965 0
M  V30 15 C 0.55 -3.445 0.9221 0
M  V30 16 C -4.4134 -3.04 1.1131 0
M  V30 17 C -4.5693 3.152 3.2042 0
M  V30 18 C -4.9715 0.7803 -0.5396 0
M  V30 19 C 2.0162 -2.3722 -0.7891 0
M  V30 20 C 1.1107 -1.3787 -2.833 0
M  V30 21 C 1.749 -2.946 0.5763 0
M  V30 22 O -4.6664 -3.5366 2.2078 0
M  V30 23 O -5.21 -2.0764 0.5921 0
M  V30 24 O -4.161 4.4447 2.7603 0
M  V30 25 C -4.7148 3.1274 4.7232 0
M  V30 26 C -5.9476 -0.3426 -0.9237 0
M  V30 27 C 2.3593 -0.8828 -0.8204 0
M  V30 28 C 2.2997 -0.5547 -2.3111 0
M  V30 29 C 2.9214 -2.9939 1.5181 0
M  V30 30 C -5.3126 -1.7457 -0.8141 0
M  V30 31 C -2.9057 4.8772 3.316 0
M  V30 32 C -3.4335 3.5812 5.4145 0
M  V30 33 O 3.459 -1.0181 -3.0077 0
M  V30 34 C -6.1768 -2.8256 -1.4852 0
M  V30 35 C -2.9745 4.9507 4.8704 0
M  V30 36 C -2.6109 6.2184 2.6521 0
M  V30 37 C 4.5348 -0.078 -3.055 0
M  V30 38 C -6.2036 -2.7322 -3.0028 0
M  V30 39 N -1.7731 5.3521 5.6324 0
M  V30 40 O 5.2041 0.0527 -1.8017 0
M  V30 41 C 5.5024 -0.4425 -4.2136 0
M  V30 42 C -0.5175 4.7914 5.1454 0
M  V30 43 C -1.6717 6.7911 5.8459 0
M  V30 44 C 5.9543 -1.1109 -1.4329 0
M  V30 45 O 6.3265 0.7079 -4.5046 0
M  V30 46 C 6.3962 -1.6467 -3.8474 0
M  V30 47 C 7.0539 -1.4031 -2.4686 0
M  V30 48 C 6.5417 -0.8376 -0.0495 0
M  V30 49 C 6.7471 0.7622 -5.8616 0
M  V30 50 O 5.6594 -2.8813 -3.8068 0
M  V30 51 O 7.8384 -2.5219 -2.0207 0
M  V30 52 C 5.4175 -3.4483 -5.0848 0
M  V30 53 C 9.0427 -2.7055 -2.7484 0
M  V30 54 H -2.1961 1.198 -0.0431 0
M  V30 55 H -0.8004 -0.1936 -1.0061 0
M  V30 56 H -1.7905 -3.0272 1.9087 0
M  V30 57 H -3.6412 2.8101 0.857 0
M  V30 58 H -1.1042 1.7651 2.7575 0
M  V30 59 H -1.023 2.8578 1.357 0
M  V30 60 H -0.1619 1.3133 1.3392 0
M  V30 61 H -1.2652 -2.7528 -1.9586 0
M  V30 62 H -0.8714 -4.4396 -0.2909 0
M  V30 63 H -3.142 -4.5676 0.465 0
M  V30 64 H -3.3366 -3.3628 -0.7483 0
M  V30 65 H -4.9389 0.1217 1.5486 0
M  V30 66 H -5.803 1.582 1.2525 0
M  V30 67 H 0.9546 -3.4672 -2.3014 0
M  V30 68 H 0.427 -3.9015 1.9039 0
M  V30 69 H -5.5599 2.9648 2.7814 0
M  V30 70 H -3.9941 0.553 -0.9723 0
M  V30 71 H -5.3046 1.709 -1.0211 0
M  V30 72 H 2.8689 -2.9279 -1.2079 0
M  V30 73 H 0.231 -0.7406 -2.963 0
M  V30 74 H 1.33 -1.8181 -3.8136 0
M  V30 75 H -4.9729 2.1189 5.0658 0
M  V30 76 H -5.5267 3.8034 5.0189 0
M  V30 77 H -6.2485 -0.1597 -1.9606 0
M  V30 78 H -6.8498 -0.2779 -0.3035 0
M  V30 79 H 1.6194 -0.2932 -0.2674 0
M  V30 80 H 3.3347 -0.6909 -0.3715 0
M  V30 81 H 2.1385 0.5123 -2.499 0
M  V30 82 H 3.7547 -3.538 1.0618 0
M  V30 83 H 2.6734 -3.4962 2.4592 0
M  V30 84 H 3.2581 -1.9815 1.7626 0
M  V30 85 H -4.3213 -1.7061 -1.274 0
M  V30 86 H -2.1337 4.168 3.0023 0
M  V30 87 H -3.6118 3.6412 6.4957 0
M  V30 88 H -2.6583 2.8204 5.2618 0
M  V30 89 H -5.8013 -3.8182 -1.2082 0
M  V30 90 H -7.2002 -2.7809 -1.0921 0
M  V30 91 H -3.7925 5.6412 5.1246 0
M  V30 92 H -1.5942 6.563 2.8521 0
M  V30 93 H -3.3188 6.9848 2.9864 0
M  V30 94 H -2.7265 6.1388 1.565 0
M  V30 95 H 4.1237 0.9129 -3.2848 0
M  V30 96 H -6.7055 -1.8235 -3.3459 0
M  V30 97 H -6.748 -3.5855 -3.4204 0
M  V30 98 H -5.1893 -2.7453 -3.414 0
M  V30 99 H 4.8858 -0.6729 -5.0906 0
M  V30 100 H 0.2878 4.9891 5.8622 0
M  V30 101 H -0.5749 3.703 5.0444 0
M  V30 102 H -0.2144 5.2108 4.1809 0
M  V30 103 H -0.862 7.0151 6.55 0
M  V30 104 H -1.4776 7.3488 4.9263 0
M  V30 105 H -2.5881 7.1838 6.3005 0
M  V30 106 H 5.2788 -1.9697 -1.3344 0
M  V30 107 H 7.1993 -1.7567 -4.5841 0
M  V30 108 H 7.7054 -0.5208 -2.537 0
M  V30 109 H 7.0833 -1.7044 0.3402 0
M  V30 110 H 5.7453 -0.5832 0.6586 0
M  V30 111 H 7.2228 0.0201 -0.0768 0
M  V30 112 H 5.8812 0.8508 -6.5248 0
M  V30 113 H 7.3363 -0.1189 -6.1284 0
M  V30 114 H 7.3731 1.6494 -5.9899 0
M  V30 115 H 4.8948 -4.3983 -4.943 0
M  V30 116 H 6.3609 -3.6471 -5.602 0
M  V30 117 H 4.7844 -2.7974 -5.6929 0
M  V30 118 H 9.6275 -3.4822 -2.2479 0
M  V30 119 H 8.8354 -3.0425 -3.7672 0
M  V30 120 H 9.6334 -1.7846 -2.7648 0
M  V30 END ATOM
M  V30 BEGIN BOND
M  V30 1 2 1 2
M  V30 2 1 2 3
M  V30 3 1 2 4
M  V30 4 2 3 5
M  V30 5 1 3 6
M  V30 6 1 4 7
M  V30 7 1 4 8
M  V30 8 1 5 9
M  V30 9 1 6 10
M  V30 10 1 6 11
M  V30 11 1 7 12
M  V30 12 1 7 13
M  V30 13 1 9 14
M  V30 14 1 10 15
M  V30 15 1 11 16
M  V30 16 1 12 17
M  V30 17 1 13 18
M  V30 18 1 14 19
M  V30 19 1 14 20
M  V30 20 2 15 21
M  V30 21 2 16 22
M  V30 22 1 16 23
M  V30 23 1 17 24
M  V30 24 1 17 25
M  V30 25 1 18 26
M  V30 26 1 19 27
M  V30 27 1 20 28
M  V30 28 1 21 29
M  V30 29 1 23 30
M  V30 30 1 24 31
M  V30 31 1 25 32
M  V30 32 1 28 33
M  V30 33 1 30 34
M  V30 34 1 31 35
M  V30 35 1 31 36
M  V30 36 1 33 37
M  V30 37 1 34 38
M  V30 38 1 35 39
M  V30 39 1 37 40
M  V30 40 1 37 41
M  V30 41 1 39 42
M  V30 42 1 39 43
M  V30 43 1 40 44
M  V30 44 1 41 45
M  V30 45 1 41 46
M  V30 46 1 44 47
M  V30 47 1 44 48
M  V30 48 1 45 49
M  V30 49 1 46 50
M  V30 50 1 47 51
M  V30 51 1 50 52
M  V30 52 1 51 53
M  V30 53 1 9 10
M  V30 54 1 19 21
M  V30 55 1 26 30
M  V30 56 1 27 28
M  V30 57 1 32 35
M  V30 58 1 46 47
M  V30 59 1 4 54
M  V30 60 1 5 55
M  V30 61 1 6 56
M  V30 62 1 7 57
M  V30 63 1 8 58
M  V30 64 1 8 59
M  V30 65 1 8 60
M  V30 66 1 9 61
M  V30 67 1 10 62
M  V30 68 1 11 63
M  V30 69 1 11 64
M  V30 70 1 13 65
M  V30 71 1 13 66
M  V30 72 1 14 67
M  V30 73 1 15 68
M  V30 74 1 17 69
M  V30 75 1 18 70
M  V30 76 1 18 71
M  V30 77 1 19 72
M  V30 78 1 20 73
M  V30 79 1 20 74
M  V30 80 1 25 75
M  V30 81 1 25 76
M  V30 82 1 26 77
M  V30 83 1 26 78
M  V30 84 1 27 79
M  V30 85 1 27 80
M  V30 86 1 28 81
M  V30 87 1 29 82
M  V30 88 1 29 83
M  V30 89 1 29 84
M  V30 90 1 30 85
M  V30 91 1 31 86
M  V30 92 1 32 87
M  V30 93 1 32 88
M  V30 94 1 34 89
M  V30 95 1 34 90
M  V30 96 1 35 91
M  V30 97 1 36 92
M  V30 98 1 36 93
M  V30 99 1 36 94
M  V30 100 1 37 95
M  V30 101 1 38 96
M  V30 102 1 38 97
M  V30 103 1 38 98
M  V30 104 1 41 99
M  V30 105 1 42 100
M  V30 106 1 42 101
M  V30 107 1 42 102
M  V30 108 1 43 103
M  V30 109 1 43 104
M  V30 110 1 43 105
M  V30 111 1 44 106
M  V30 112 1 46 107
M  V30 113 1 47 108
M  V30 114 1 48 109
M  V30 115 1 48 110
M  V30 116 1 48 111
M  V30 117 1 49 112
M  V30 118 1 49 113
M  V30 119 1 49 114
M  V30 120 1 52 115
M  V30 121 1 52 116
M  V30 122 1 52 117
M  V30 123 1 53 118
M  V30 124 1 53 119
M  V30 125 1 53 120
M  V30 END BOND
M  V30 END CTAB
M  END
>  <level_0>
5687

>  <index>
5687

>  <NO.>
5688

>  <Name>
spinosad

>  <SMILES>
CCC1CCCC(OC2CCC(N(C)C)C(C)O2)C(C)C(=O)C2=CC3C(C=C(C)C4CC(OC5OC(C)C(OC)C(OC)C5OC)CC43)C2CC(=O)O1

>  <logBB>


>  <Class>
-1

>  <MW>
745.48

>  <nHBAcc>
11

>  <nHBDon>
0

>  <SLogP>
5.88

>  <TopoPSA>
111.22

>  <MMFF94 Energy>
200.4

$$$$
CCCCC(=O)OCC(=O)C1(O)Cc2c(O)c3c(c(O)c2C(OC2CC(NC(=O)C(F)(F)F)C(O)C(C)O2)C1)C(=O)c1c(OC)cccc1C3=O
Actelion Java MolfileCreator 2.0

  0  0  0  0  0  0              0 V3000
M  V30 BEGIN CTAB
M  V30 COUNTS 87 91 0 0 0
M  V30 BEGIN ATOM
M  V30 1 F -3.8016 -6.1528 1.4546 0
M  V30 2 C -3.6105 -4.8821 1.0035 0
M  V30 3 F -4.8202 -4.2573 1.1061 0
M  V30 4 F -3.3358 -4.98 -0.327 0
M  V30 5 C -2.4982 -4.1402 1.7838 0
M  V30 6 O -1.3567 -4.5832 1.9208 0
M  V30 7 N -2.8705 -2.9105 2.3024 0
M  V30 8 C -2.0291 -2.0311 3.125 0
M  V30 9 C -2.7963 -0.7261 3.4398 0
M  V30 10 C -0.684 -1.677 2.4817 0
M  V30 11 O -4.1063 -1.0576 3.9123 0
M  V30 12 C -2.8658 0.1625 2.1824 0
M  V30 13 C -0.9071 -0.8216 1.2371 0
M  V30 14 O -1.5634 0.3863 1.6409 0
M  V30 15 C -3.4715 1.5284 2.4904 0
M  V30 16 O 0.2752 -0.4137 0.5644 0
M  V30 17 C 1.3093 -1.3622 0.3254 0
M  V30 18 C 2.41 -0.563 -0.3486 0
M  V30 19 C 0.9024 -2.6334 -0.4283 0
M  V30 20 C 3.02 0.5054 0.3491 0
M  V30 21 C 2.8326 -0.8431 -1.6557 0
M  V30 22 C 0.8624 -2.4912 -1.9471 0
M  V30 23 O 2.4849 0.8758 1.5561 0
M  V30 24 C 4.099 1.2243 -0.1858 0
M  V30 25 C 3.905 -0.1133 -2.1967 0
M  V30 26 C 2.1785 -1.9155 -2.4897 0
M  V30 27 O 0.7251 -3.8246 -2.4821 0
M  V30 28 C -0.3771 -1.6868 -2.3966 0
M  V30 29 C 4.8083 2.2813 0.5826 0
M  V30 30 C 4.5313 0.9159 -1.4726 0
M  V30 31 O 4.3103 -0.4591 -3.4639 0
M  V30 32 O -0.3318 -0.4727 -2.602 0
M  V30 33 C -1.6729 -2.4859 -2.5758 0
M  V30 34 O 4.7711 2.3033 1.8057 0
M  V30 35 C 5.653 3.2555 -0.1501 0
M  V30 36 C 5.6222 1.6964 -2.0851 0
M  V30 37 O -2.7912 -1.64 -2.8514 0
M  V30 38 C 6.0768 4.4662 0.4186 0
M  V30 39 C 6.0817 2.9362 -1.438 0
M  V30 40 O 6.1082 1.329 -3.1514 0
M  V30 41 C -3.6301 -1.3979 -1.8104 0
M  V30 42 O 5.6122 4.8952 1.6335 0
M  V30 43 C 6.9046 5.3393 -0.2972 0
M  V30 44 C 6.9351 3.7966 -2.1454 0
M  V30 45 O -3.5492 -1.9134 -0.7027 0
M  V30 46 C -4.7066 -0.4283 -2.238 0
M  V30 47 C 6.5753 4.6457 2.6587 0
M  V30 48 C 7.3459 4.9981 -1.5729 0
M  V30 49 C -5.2598 0.35 -1.0468 0
M  V30 50 C -6.3427 1.338 -1.4753 0
M  V30 51 C -6.8814 2.119 -0.287 0
M  V30 52 H -3.8607 -2.6671 2.2522 0
M  V30 53 H -1.8558 -2.5847 4.0558 0
M  V30 54 H -2.2611 -0.2012 4.2415 0
M  V30 55 H -0.1067 -2.5757 2.2587 0
M  V30 56 H -0.0817 -1.1084 3.2029 0
M  V30 57 H -4.4645 -0.2693 4.3586 0
M  V30 58 H -3.4972 -0.3073 1.4206 0
M  V30 59 H -1.5314 -1.3354 0.5053 0
M  V30 60 H -3.4614 2.1598 1.5953 0
M  V30 61 H -4.5047 1.444 2.8394 0
M  V30 62 H -2.8842 2.0541 3.2512 0
M  V30 63 H 1.7088 -1.6794 1.2977 0
M  V30 64 H 1.6366 -3.4167 -0.1884 0
M  V30 65 H -0.0544 -3.0226 -0.0667 0
M  V30 66 H 1.5116 0.7881 1.4766 0
M  V30 67 H 2.0004 -1.5328 -3.5036 0
M  V30 68 H 2.9087 -2.7304 -2.5939 0
M  V30 69 H 1.0139 -3.815 -3.4138 0
M  V30 70 H 5.0904 0.0921 -3.7031 0
M  V30 71 H -1.5506 -3.1328 -3.4501 0
M  V30 72 H -1.8374 -3.1239 -1.7022 0
M  V30 73 H 7.1945 6.2923 0.139 0
M  V30 74 H 7.2693 3.5399 -3.1493 0
M  V30 75 H -5.4994 -0.998 -2.7339 0
M  V30 76 H -4.2794 0.2777 -2.9595 0
M  V30 77 H 6.9752 3.6266 2.6123 0
M  V30 78 H 6.0778 4.7732 3.6247 0
M  V30 79 H 7.3924 5.3722 2.5984 0
M  V30 80 H 7.9934 5.6743 -2.126 0
M  V30 81 H -4.4421 0.891 -0.5555 0
M  V30 82 H -5.6695 -0.3455 -0.3039 0
M  V30 83 H -5.9367 2.0401 -2.2126 0
M  V30 84 H -7.1674 0.8007 -1.9576 0
M  V30 85 H -7.6551 2.8207 -0.6137 0
M  V30 86 H -7.3233 1.4475 0.456 0
M  V30 87 H -6.0855 2.6925 0.1987 0
M  V30 END ATOM
M  V30 BEGIN BOND
M  V30 1 1 1 2
M  V30 2 1 2 3
M  V30 3 1 2 4
M  V30 4 1 2 5
M  V30 5 2 5 6
M  V30 6 1 5 7
M  V30 7 1 7 8
M  V30 8 1 8 9
M  V30 9 1 8 10
M  V30 10 1 9 11
M  V30 11 1 9 12
M  V30 12 1 10 13
M  V30 13 1 12 14
M  V30 14 1 12 15
M  V30 15 1 13 16
M  V30 16 1 16 17
M  V30 17 1 17 18
M  V30 18 1 17 19
M  V30 19 2 18 20
M  V30 20 1 18 21
M  V30 21 1 19 22
M  V30 22 1 20 23
M  V30 23 1 20 24
M  V30 24 2 21 25
M  V30 25 1 21 26
M  V30 26 1 22 27
M  V30 27 1 22 28
M  V30 28 1 24 29
M  V30 29 2 24 30
M  V30 30 1 25 31
M  V30 31 2 28 32
M  V30 32 1 28 33
M  V30 33 2 29 34
M  V30 34 1 29 35
M  V30 35 1 30 36
M  V30 36 1 33 37
M  V30 37 2 35 38
M  V30 38 1 35 39
M  V30 39 2 36 40
M  V30 40 1 37 41
M  V30 41 1 38 42
M  V30 42 1 38 43
M  V30 43 2 39 44
M  V30 44 2 41 45
M  V30 45 1 41 46
M  V30 46 1 42 47
M  V30 47 2 43 48
M  V30 48 1 46 49
M  V30 49 1 49 50
M  V30 50 1 50 51
M  V30 51 1 13 14
M  V30 52 1 22 26
M  V30 53 1 25 30
M  V30 54 1 36 39
M  V30 55 1 44 48
M  V30 56 1 7 52
M  V30 57 1 8 53
M  V30 58 1 9 54
M  V30 59 1 10 55
M  V30 60 1 10 56
M  V30 61 1 11 57
M  V30 62 1 12 58
M  V30 63 1 13 59
M  V30 64 1 15 60
M  V30 65 1 15 61
M  V30 66 1 15 62
M  V30 67 1 17 63
M  V30 68 1 19 64
M  V30 69 1 19 65
M  V30 70 1 23 66
M  V30 71 1 26 67
M  V30 72 1 26 68
M  V30 73 1 27 69
M  V30 74 1 31 70
M  V30 75 1 33 71
M  V30 76 1 33 72
M  V30 77 1 43 73
M  V30 78 1 44 74
M  V30 79 1 46 75
M  V30 80 1 46 76
M  V30 81 1 47 77
M  V30 82 1 47 78
M  V30 83 1 47 79
M  V30 84 1 48 80
M  V30 85 1 49 81
M  V30 86 1 49 82
M  V30 87 1 50 83
M  V30 88 1 50 84
M  V30 89 1 51 85
M  V30 90 1 51 86
M  V30 91 1 51 87
M  V30 END BOND
M  V30 END CTAB
M  END
>  <level_0>
5692

>  <index>
5692

>  <NO.>
5693

>  <Name>
valrubicin

>  <SMILES>
CCCCC(=O)OCC(=O)C1(O)Cc2c(O)c3c(c(O)c2C(OC2CC(NC(=O)C(F)(F)F)C(O)C(C)O2)C1)C(=O)c1c(OC)cccc1C3=O

>  <logBB>


>  <Class>
-1

>  <MW>
723.21

>  <nHBAcc>
13

>  <nHBDon>
5

>  <SLogP>
2.46

>  <TopoPSA>
215.22

>  <MMFF94 Energy>
204.43

$$$$
CCCCC(CC)COC(=O)C(C#N)=C(c1ccccc1)c1ccccc1
Actelion Java MolfileCreator 2.0

  0  0  0  0  0  0              0 V3000
M  V30 BEGIN CTAB
M  V30 COUNTS 54 55 0 0 0
M  V30 BEGIN ATOM
M  V30 1 O 0.8679 -0.3155 -2.8428 0
M  V30 2 C 0.2326 0.325 -2.0196 0
M  V30 3 O 0.5851 0.5606 -0.7298 0
M  V30 4 C -1.0502 0.9938 -2.3097 0
M  V30 5 C 1.7994 -0.0904 -0.3262 0
M  V30 6 C -0.9463 2.1267 -3.1629 0
M  V30 7 C -2.2189 0.518 -1.8107 0
M  V30 8 C 2.0718 0.1967 1.1638 0 CFG=2
M  V30 9 N -0.8532 3.0636 -3.8423 0
M  V30 10 C -2.2423 -0.7274 -0.996 0
M  V30 11 C -3.4836 1.244 -2.1018 0
M  V30 12 C 3.3791 -0.4712 1.6467 0
M  V30 13 C 0.8588 -0.2477 2.0167 0
M  V30 14 C -1.8773 -1.9641 -1.5477 0
M  V30 15 C -2.6644 -0.6761 0.3391 0
M  V30 16 C -3.7508 2.4911 -1.5191 0
M  V30 17 C -4.4371 0.6656 -2.9495 0
M  V30 18 C 4.6285 -0.0337 0.8722 0
M  V30 19 C 0.9798 0.0784 3.4991 0
M  V30 20 C -1.9077 -3.1219 -0.7678 0
M  V30 21 C -2.6958 -1.8358 1.1161 0
M  V30 22 C -4.9472 3.1552 -1.7958 0
M  V30 23 C -5.633 1.3321 -3.2229 0
M  V30 24 C 5.9246 -0.6341 1.4255 0
M  V30 25 C -2.3141 -3.0566 0.5635 0
M  V30 26 C -5.8861 2.5766 -2.6481 0
M  V30 27 C 6.3076 -0.1018 2.798 0
M  V30 28 H 1.7066 -1.1711 -0.4901 0
M  V30 29 H 2.6119 0.3023 -0.9457 0
M  V30 30 H 2.1693 1.2845 1.2827 0
M  V30 31 H 3.5273 -0.2262 2.7025 0
M  V30 32 H 3.2786 -1.562 1.5847 0
M  V30 33 H -0.0445 0.2518 1.6489 0
M  V30 34 H 0.6945 -1.3257 1.899 0
M  V30 35 H -1.5661 -2.0409 -2.5878 0
M  V30 36 H -2.9665 0.2675 0.7881 0
M  V30 37 H -3.034 2.9567 -0.8464 0
M  V30 38 H -4.2575 -0.306 -3.4041 0
M  V30 39 H 4.701 1.0603 0.8691 0
M  V30 40 H 4.5433 -0.3538 -0.1718 0
M  V30 41 H 1.2246 1.1341 3.6518 0
M  V30 42 H 1.7441 -0.5332 3.9864 0
M  V30 43 H 0.0299 -0.1252 4.0044 0
M  V30 44 H -1.6171 -4.0756 -1.2013 0
M  V30 45 H -3.0193 -1.7856 2.1527 0
M  V30 46 H -5.1464 4.1256 -1.3478 0
M  V30 47 H -6.3671 0.8805 -3.8854 0
M  V30 48 H 5.8441 -1.7266 1.4653 0
M  V30 49 H 6.7377 -0.4016 0.7272 0
M  V30 50 H -2.3392 -3.9591 1.1691 0
M  V30 51 H -6.8165 3.0959 -2.8645 0
M  V30 52 H 7.2919 -0.4844 3.0868 0
M  V30 53 H 6.3572 0.9915 2.7962 0
M  V30 54 H 5.5946 -0.4153 3.5658 0
M  V30 END ATOM
M  V30 BEGIN BOND
M  V30 1 2 1 2
M  V30 2 1 2 3
M  V30 3 1 2 4
M  V30 4 1 3 5
M  V30 5 1 4 6
M  V30 6 2 4 7
M  V30 7 1 5 8
M  V30 8 3 6 9
M  V30 9 1 7 10
M  V30 10 1 7 11
M  V30 11 1 8 12
M  V30 12 1 8 13
M  V30 13 2 10 14
M  V30 14 1 10 15
M  V30 15 2 11 16
M  V30 16 1 11 17
M  V30 17 1 12 18
M  V30 18 1 13 19
M  V30 19 1 14 20
M  V30 20 2 15 21
M  V30 21 1 16 22
M  V30 22 2 17 23
M  V30 23 1 18 24
M  V30 24 2 20 25
M  V30 25 2 22 26
M  V30 26 1 24 27
M  V30 27 1 21 25
M  V30 28 1 23 26
M  V30 29 1 5 28
M  V30 30 1 5 29
M  V30 31 1 8 30
M  V30 32 1 12 31
M  V30 33 1 12 32
M  V30 34 1 13 33
M  V30 35 1 13 34
M  V30 36 1 14 35
M  V30 37 1 15 36
M  V30 38 1 16 37
M  V30 39 1 17 38
M  V30 40 1 18 39
M  V30 41 1 18 40
M  V30 42 1 19 41
M  V30 43 1 19 42
M  V30 44 1 19 43
M  V30 45 1 20 44
M  V30 46 1 21 45
M  V30 47 1 22 46
M  V30 48 1 23 47
M  V30 49 1 24 48
M  V30 50 1 24 49
M  V30 51 1 25 50
M  V30 52 1 26 51
M  V30 53 1 27 52
M  V30 54 1 27 53
M  V30 55 1 27 54
M  V30 END BOND
M  V30 BEGIN COLLECTION
M  V30 MDLV30/STERAC1 ATOMS=(1 8)
M  V30 END COLLECTION
M  V30 END CTAB
M  END
>  <level_0>
5694

>  <index>
5694

>  <NO.>
5695

>  <Name>
octocrylene

>  <SMILES>
CCCCC(CC)COC(=O)C(C#N)=C(c1ccccc1)c1ccccc1

>  <logBB>


>  <Class>
-1

>  <MW>
361.2

>  <nHBAcc>
3

>  <nHBDon>
0

>  <SLogP>
5.77

>  <TopoPSA>
50.09

>  <MMFF94 Energy>
42.916

$$$$
CCCCCCCC(=O)OCC(O)C(OC)C1OC(C(=O)O)=CC(N=C(N)N)C1NC(C)=O
Actelion Java MolfileCreator 2.0

  0  0  0  0  0  0              0 V3000
M  V30 BEGIN CTAB
M  V30 COUNTS 69 69 0 0 0
M  V30 BEGIN ATOM
M  V30 1 O 6.7365 4.4609 -1.7981 0
M  V30 2 C 5.5298 4.3695 -1.6496 0
M  V30 3 O 4.7606 5.4723 -1.5701 0
M  V30 4 C 4.73 3.1187 -1.5298 0
M  V30 5 O 3.3587 3.227 -1.3995 0
M  V30 6 C 5.396 1.9521 -1.5458 0
M  V30 7 C 2.6188 2.0207 -1.0831 0
M  V30 8 C 4.7056 0.6271 -1.4451 0
M  V30 9 C 3.2051 0.7776 -1.7857 0
M  V30 10 C 2.4313 1.9433 0.4606 0
M  V30 11 N 5.3589 -0.2838 -2.4005 0
M  V30 12 N 3.0189 0.8497 -3.2506 0
M  V30 13 O 3.709 1.7746 1.1064 0
M  V30 14 C 1.466 0.8375 0.9555 0
M  V30 15 C 5.2275 -1.5456 -2.209 0
M  V30 16 C 1.7995 0.7142 -3.8575 0
M  V30 17 C 3.8137 2.46 2.3467 0
M  V30 18 O 1.9746 -0.4783 0.6717 0
M  V30 19 C 0.0469 0.9754 0.3913 0
M  V30 20 N 5.8241 -2.3952 -3.0618 0
M  V30 21 N 4.5529 -2.2046 -1.2484 0
M  V30 22 O 0.746 0.5907 -3.24 0
M  V30 23 C 1.8545 0.7664 -5.3591 0
M  V30 24 O -0.7756 -0.011 1.0492 0
M  V30 25 C -2.1185 0.2072 0.9403 0
M  V30 26 O -2.6304 1.1676 0.3856 0
M  V30 27 C -2.8639 -0.9164 1.6213 0
M  V30 28 C -4.378 -0.7423 1.5177 0
M  V30 29 C -5.1187 -1.888 2.2082 0
M  V30 30 C -6.6348 -1.7132 2.1043 0
M  V30 31 C -7.3757 -2.8593 2.795 0
M  V30 32 C -8.8907 -2.6846 2.6911 0
M  V30 33 C -9.631 -3.8219 3.3766 0
M  V30 34 H 5.4008 6.2044 -1.6706 0
M  V30 35 H 6.4798 1.9332 -1.6243 0
M  V30 36 H 1.6246 2.216 -1.4988 0
M  V30 37 H 4.8512 0.2663 -0.421 0
M  V30 38 H 2.6609 -0.1229 -1.4969 0
M  V30 39 H 2.0243 2.9174 0.7679 0
M  V30 40 H 3.874 0.8279 -3.7971 0
M  V30 41 H 1.4096 0.8807 2.0495 0
M  V30 42 H 4.8009 2.2538 2.7687 0
M  V30 43 H 3.0549 2.1141 3.0535 0
M  V30 44 H 3.7222 3.5395 2.193 0
M  V30 45 H 1.2582 -1.095 0.9174 0
M  V30 46 H -0.3332 1.9856 0.5801 0
M  V30 47 H 0.0246 0.751 -0.6782 0
M  V30 48 H 5.9473 -3.3725 -2.8591 0
M  V30 49 H 6.3818 -1.9857 -3.7991 0
M  V30 50 H 4.4081 -3.1996 -1.3023 0
M  V30 51 H 4.0358 -1.7137 -0.5286 0
M  V30 52 H 1.7553 1.8049 -5.6856 0
M  V30 53 H 1.0343 0.1735 -5.7732 0
M  V30 54 H 2.7984 0.3594 -5.7324 0
M  V30 55 H -2.5643 -0.9353 2.6752 0
M  V30 56 H -2.5672 -1.859 1.148 0
M  V30 57 H -4.6725 -0.6946 0.4618 0
M  V30 58 H -4.6716 0.2133 1.9699 0
M  V30 59 H -4.8255 -1.9312 3.2643 0
M  V30 60 H -4.8268 -2.8417 1.7521 0
M  V30 61 H -6.928 -1.6698 1.0483 0
M  V30 62 H -6.9268 -0.7593 2.5605 0
M  V30 63 H -7.0826 -2.9028 3.8511 0
M  V30 64 H -7.0838 -3.8132 2.3391 0
M  V30 65 H -9.1884 -1.7342 3.1493 0
M  V30 66 H -9.1896 -2.6445 1.6372 0
M  V30 67 H -10.7124 -3.6768 3.2902 0
M  V30 68 H -9.3798 -4.7848 2.9203 0
M  V30 69 H -9.3786 -3.8693 4.4408 0
M  V30 END ATOM
M  V30 BEGIN BOND
M  V30 1 2 1 2
M  V30 2 1 2 3
M  V30 3 1 2 4
M  V30 4 1 4 5
M  V30 5 2 4 6
M  V30 6 1 5 7
M  V30 7 1 6 8
M  V30 8 1 7 9
M  V30 9 1 7 10
M  V30 10 1 8 11
M  V30 11 1 9 12
M  V30 12 1 10 13
M  V30 13 1 10 14
M  V30 14 2 11 15
M  V30 15 1 12 16
M  V30 16 1 13 17
M  V30 17 1 14 18
M  V30 18 1 14 19
M  V30 19 1 15 20
M  V30 20 1 15 21
M  V30 21 2 16 22
M  V30 22 1 16 23
M  V30 23 1 19 24
M  V30 24 1 24 25
M  V30 25 2 25 26
M  V30 26 1 25 27
M  V30 27 1 27 28
M  V30 28 1 28 29
M  V30 29 1 29 30
M  V30 30 1 30 31
M  V30 31 1 31 32
M  V30 32 1 32 33
M  V30 33 1 8 9
M  V30 34 1 3 34
M  V30 35 1 6 35
M  V30 36 1 7 36
M  V30 37 1 8 37
M  V30 38 1 9 38
M  V30 39 1 10 39
M  V30 40 1 12 40
M  V30 41 1 14 41
M  V30 42 1 17 42
M  V30 43 1 17 43
M  V30 44 1 17 44
M  V30 45 1 18 45
M  V30 46 1 19 46
M  V30 47 1 19 47
M  V30 48 1 20 48
M  V30 49 1 20 49
M  V30 50 1 21 50
M  V30 51 1 21 51
M  V30 52 1 23 52
M  V30 53 1 23 53
M  V30 54 1 23 54
M  V30 55 1 27 55
M  V30 56 1 27 56
M  V30 57 1 28 57
M  V30 58 1 28 58
M  V30 59 1 29 59
M  V30 60 1 29 60
M  V30 61 1 30 61
M  V30 62 1 30 62
M  V30 63 1 31 63
M  V30 64 1 31 64
M  V30 65 1 32 65
M  V30 66 1 32 66
M  V30 67 1 33 67
M  V30 68 1 33 68
M  V30 69 1 33 69
M  V30 END BOND
M  V30 END CTAB
M  END
>  <level_0>
5698

>  <index>
5698

>  <NO.>
5699

>  <Name>
laninamivir octanoate

>  <SMILES>
CCCCCCCC(=O)OCC(O)C(OC)C1OC(C(=O)O)=CC(N=C(N)N)C1NC(C)=O

>  <logBB>


>  <Class>
-1

>  <MW>
472.25

>  <nHBAcc>
8

>  <nHBDon>
5

>  <SLogP>
-0.22

>  <TopoPSA>
195.79

>  <MMFF94 Energy>
-93.857

$$$$
CCCCCCCCCC(=O)OC1CCC2C3CCC4=CC(=O)CCC4C3CCC12C
Actelion Java MolfileCreator 2.0

  0  0  0  0  0  0              0 V3000
M  V30 BEGIN CTAB
M  V30 COUNTS 75 78 0 0 0
M  V30 BEGIN ATOM
M  V30 1 O -1.5115 -8.7752 -5.1782 0
M  V30 2 C -1.3113 -8.0335 -4.2201 0
M  V30 3 C -2.4569 -7.3769 -3.5497 0
M  V30 4 C 0.0555 -7.8346 -3.62 0
M  V30 5 C -2.2667 -6.4961 -2.5521 0
M  V30 6 C 0.2069 -6.4084 -3.1174 0
M  V30 7 C -0.8924 -6.0072 -2.1104 0
M  V30 8 C -3.4479 -5.9737 -1.7719 0
M  V30 9 C -0.8895 -4.4638 -1.8871 0
M  V30 10 C -3.4024 -4.4603 -1.594 0
M  V30 11 C -2.0702 -4.0274 -0.9699 0
M  V30 12 C 0.4738 -3.943 -1.3635 0
M  V30 13 C -2.0004 -2.5133 -0.7632 0
M  V30 14 C 0.4737 -2.4412 -1.0267 0
M  V30 15 C -0.6856 -2.0692 -0.0935 0
M  V30 16 C -3.0743 -1.8267 0.0748 0
M  V30 17 C -0.9586 -0.5525 0.0217 0
M  V30 18 C -0.4337 -2.6827 1.3079 0
M  V30 19 C -2.434 -0.4856 0.4761 0
M  V30 20 O -0.0742 0.0721 0.955 0
M  V30 21 C -0.0634 1.4355 0.9328 0
M  V30 22 O -0.736 2.1339 0.1888 0
M  V30 23 C 0.9087 1.9413 1.9725 0
M  V30 24 C 0.9741 3.4681 1.9985 0
M  V30 25 C 1.9657 3.9621 3.0534 0
M  V30 26 C 1.9872 5.486 3.2027 0
M  V30 27 C 2.5106 6.2117 1.9613 0
M  V30 28 C 2.6203 7.7194 2.2061 0
M  V30 29 C 3.1367 8.4462 0.9623 0
M  V30 30 C 3.3652 9.9426 1.1856 0
M  V30 31 C 2.0863 10.718 1.4615 0
M  V30 32 H -3.4384 -7.7096 -3.8686 0
M  V30 33 H 0.1903 -8.5584 -2.8092 0
M  V30 34 H 0.8095 -8.0318 -4.3893 0
M  V30 35 H 0.1842 -5.7271 -3.9787 0
M  V30 36 H 1.1955 -6.3063 -2.6558 0
M  V30 37 H -0.6722 -6.4972 -1.1514 0
M  V30 38 H -3.4487 -6.4538 -0.7849 0
M  V30 39 H -4.3953 -6.2458 -2.2527 0
M  V30 40 H -1.0477 -3.9877 -2.8675 0
M  V30 41 H -4.2387 -4.1566 -0.9538 0
M  V30 42 H -3.546 -3.9664 -2.5636 0
M  V30 43 H -1.9798 -4.5351 -0.0016 0
M  V30 44 H 1.2513 -4.1094 -2.1176 0
M  V30 45 H 0.7736 -4.521 -0.4817 0
M  V30 46 H -2.0551 -2.0534 -1.7642 0
M  V30 47 H 1.4356 -2.1631 -0.5796 0
M  V30 48 H 0.3957 -1.8764 -1.9648 0
M  V30 49 H -3.9991 -1.672 -0.4902 0
M  V30 50 H -3.3248 -2.4123 0.9663 0
M  V30 51 H -0.8485 -0.0841 -0.9665 0
M  V30 52 H -0.3884 -3.7746 1.2898 0
M  V30 53 H 0.5221 -2.3339 1.7157 0
M  V30 54 H -1.2093 -2.4089 2.0301 0
M  V30 55 H -2.5255 -0.3187 1.5553 0
M  V30 56 H -2.943 0.3483 -0.0198 0
M  V30 57 H 1.8989 1.5328 1.7418 0
M  V30 58 H 0.5863 1.5676 2.9508 0
M  V30 59 H -0.0225 3.8762 2.2072 0
M  V30 60 H 1.2646 3.8319 1.0063 0
M  V30 61 H 2.9731 3.6019 2.8125 0
M  V30 62 H 1.6995 3.5282 4.0253 0
M  V30 63 H 2.6261 5.7356 4.0589 0
M  V30 64 H 0.98 5.846 3.4455 0
M  V30 65 H 1.8408 6.0358 1.1124 0
M  V30 66 H 3.4945 5.8113 1.6893 0
M  V30 67 H 3.2974 7.9064 3.0482 0
M  V30 68 H 1.6354 8.1089 2.4872 0
M  V30 69 H 2.4357 8.3015 0.1313 0
M  V30 70 H 4.0888 7.9969 0.6542 0
M  V30 71 H 4.0689 10.0935 2.0125 0
M  V30 72 H 3.8375 10.359 0.2879 0
M  V30 73 H 2.3015 11.79 1.515 0
M  V30 74 H 1.3511 10.5596 0.6663 0
M  V30 75 H 1.6359 10.4238 2.4139 0
M  V30 END ATOM
M  V30 BEGIN BOND
M  V30 1 2 1 2
M  V30 2 1 2 3
M  V30 3 1 2 4
M  V30 4 2 3 5
M  V30 5 1 4 6
M  V30 6 1 5 7
M  V30 7 1 5 8
M  V30 8 1 7 9
M  V30 9 1 8 10
M  V30 10 1 9 11
M  V30 11 1 9 12
M  V30 12 1 11 13
M  V30 13 1 12 14
M  V30 14 1 13 15
M  V30 15 1 13 16
M  V30 16 1 15 17
M  V30 17 1 15 18
M  V30 18 1 16 19
M  V30 19 1 17 20
M  V30 20 1 20 21
M  V30 21 2 21 22
M  V30 22 1 21 23
M  V30 23 1 23 24
M  V30 24 1 24 25
M  V30 25 1 25 26
M  V30 26 1 26 27
M  V30 27 1 27 28
M  V30 28 1 28 29
M  V30 29 1 29 30
M  V30 30 1 30 31
M  V30 31 1 6 7
M  V30 32 1 10 11
M  V30 33 1 14 15
M  V30 34 1 17 19
M  V30 35 1 3 32
M  V30 36 1 4 33
M  V30 37 1 4 34
M  V30 38 1 6 35
M  V30 39 1 6 36
M  V30 40 1 7 37
M  V30 41 1 8 38
M  V30 42 1 8 39
M  V30 43 1 9 40
M  V30 44 1 10 41
M  V30 45 1 10 42
M  V30 46 1 11 43
M  V30 47 1 12 44
M  V30 48 1 12 45
M  V30 49 1 13 46
M  V30 50 1 14 47
M  V30 51 1 14 48
M  V30 52 1 16 49
M  V30 53 1 16 50
M  V30 54 1 17 51
M  V30 55 1 18 52
M  V30 56 1 18 53
M  V30 57 1 18 54
M  V30 58 1 19 55
M  V30 59 1 19 56
M  V30 60 1 23 57
M  V30 61 1 23 58
M  V30 62 1 24 59
M  V30 63 1 24 60
M  V30 64 1 25 61
M  V30 65 1 25 62
M  V30 66 1 26 63
M  V30 67 1 26 64
M  V30 68 1 27 65
M  V30 69 1 27 66
M  V30 70 1 28 67
M  V30 71 1 28 68
M  V30 72 1 29 69
M  V30 73 1 29 70
M  V30 74 1 30 71
M  V30 75 1 30 72
M  V30 76 1 31 73
M  V30 77 1 31 74
M  V30 78 1 31 75
M  V30 END BOND
M  V30 END CTAB
M  END
>  <level_0>
5700

>  <index>
5700

>  <NO.>
5701

>  <Name>
nandrolone decanoate

>  <SMILES>
CCCCCCCCCC(=O)OC1CCC2C3CCC4=CC(=O)CCC4C3CCC12C

>  <logBB>


>  <Class>
-1

>  <MW>
428.33

>  <nHBAcc>
3

>  <nHBDon>
0

>  <SLogP>
7.18

>  <TopoPSA>
43.37

>  <MMFF94 Energy>
49.378

$$$$
CCCCCCCCCCCCCCCC(=O)O[C@@H]1[C@@H](O)[C@@H](O)[C@@H]([C@H](NC(=O)[C@@H]2C[C@@H](CCC)CN2C)[C@H](C)Cl)O[C@@H]1SC
Actelion Java MolfileCreator 2.0

  0  0  0  0  0  0              0 V3000
M  V30 BEGIN CTAB
M  V30 COUNTS 107 108 0 0 0
M  V30 BEGIN ATOM
M  V30 1 Cl -1.5057 6.5109 -4.6019 0
M  V30 2 C -0.8612 7.6242 -3.3512 0 CFG=2
M  V30 3 C -1.146 7.1342 -1.9052 0 CFG=1
M  V30 4 C -1.4106 9.0242 -3.6273 0
M  V30 5 N -2.5837 7.1242 -1.6145 0
M  V30 6 C -0.5573 5.7566 -1.4768 0 CFG=1
M  V30 7 C -3.2565 8.1326 -0.9696 0
M  V30 8 O -1.1958 4.68 -2.1972 0
M  V30 9 C 0.9649 5.6311 -1.6191 0 CFG=2
M  V30 10 O -2.6986 9.1377 -0.5364 0
M  V30 11 C -4.7635 7.882 -0.7893 0 CFG=1
M  V30 12 C -0.8555 3.3648 -1.7244 0 CFG=2
M  V30 13 O 1.38 5.6874 -2.9934 0
M  V30 14 C 1.4145 4.277 -1.0468 0 CFG=1
M  V30 15 N -5.2214 6.7218 -1.6073 0
M  V30 16 C -5.0734 7.4985 0.662 0
M  V30 17 S -1.6647 2.9913 -0.1191 0
M  V30 18 C 0.6718 3.1304 -1.7511 0 CFG=1
M  V30 19 O 2.8324 4.1422 -1.215 0
M  V30 20 C -6.2721 6.0701 -0.821 0
M  V30 21 C -5.7028 7.133 -2.9232 0
M  V30 22 C -5.674 6.0957 0.5798 0 CFG=2
M  V30 23 C -3.3859 3.0479 -0.6719 0
M  V30 24 O 1.0168 1.8647 -1.1509 0
M  V30 25 C -6.7003 5.7766 1.6682 0
M  V30 26 C 2.0216 1.1667 -1.751 0
M  V30 27 C -6.0826 5.7658 3.0677 0
M  V30 28 O 2.5586 1.4712 -2.8062 0
M  V30 29 C 2.3447 -0.0529 -0.9207 0
M  V30 30 C -7.1093 5.3895 4.1247 0
M  V30 31 C 3.5074 -0.8508 -1.5076 0
M  V30 32 C 3.8298 -2.0768 -0.6511 0
M  V30 33 C 4.9916 -2.8765 -1.2444 0
M  V30 34 C 5.4329 -4.0515 -0.3671 0
M  V30 35 C 4.3724 -5.1471 -0.2388 0
M  V30 36 C 4.9067 -6.3451 0.5496 0
M  V30 37 C 3.8474 -7.4404 0.6832 0
M  V30 38 C 4.3815 -8.6377 1.4709 0
M  V30 39 C 3.3222 -9.733 1.6046 0
M  V30 40 C 3.8563 -10.9303 2.3924 0
M  V30 41 C 2.797 -12.0256 2.5261 0
M  V30 42 C 3.3311 -13.2229 3.314 0
M  V30 43 C 2.2726 -14.3173 3.4475 0
M  V30 44 C 2.7995 -15.5094 4.2301 0
M  V30 45 H 0.2179 7.6792 -3.5124 0
M  V30 46 H -0.6904 7.8781 -1.2373 0
M  V30 47 H -2.505 9.0505 -3.6104 0
M  V30 48 H -1.0388 9.7392 -2.8859 0
M  V30 49 H -1.0883 9.3783 -4.6131 0
M  V30 50 H -3.1599 6.3596 -1.9666 0
M  V30 51 H -0.8092 5.6491 -0.4132 0
M  V30 52 H 1.4807 6.4452 -1.0991 0
M  V30 53 H -5.2985 8.8032 -1.0531 0
M  V30 54 H -1.2951 2.6537 -2.4331 0
M  V30 55 H 0.6722 5.2998 -3.5472 0
M  V30 56 H 1.2312 4.237 0.0327 0
M  V30 57 H -4.1933 7.5081 1.3141 0
M  V30 58 H -5.805 8.2049 1.0738 0
M  V30 59 H 0.9673 3.1287 -2.8085 0
M  V30 60 H 3.0207 4.3421 -2.1543 0
M  V30 61 H -7.2164 6.6292 -0.8554 0
M  V30 62 H -6.4537 5.0461 -1.163 0
M  V30 63 H -6.0199 6.2575 -3.5 0
M  V30 64 H -4.9028 7.617 -3.4934 0
M  V30 65 H -6.5481 7.8276 -2.8601 0
M  V30 66 H -4.8581 5.3624 0.6355 0
M  V30 67 H -4.0439 2.8712 0.1829 0
M  V30 68 H -3.6228 4.0262 -1.0955 0
M  V30 69 H -3.5717 2.2707 -1.4175 0
M  V30 70 H -7.1431 4.7942 1.4615 0
M  V30 71 H -7.5208 6.5046 1.6362 0
M  V30 72 H -5.2529 5.0503 3.1025 0
M  V30 73 H -5.6716 6.7524 3.3087 0
M  V30 74 H 1.4483 -0.681 -0.8736 0
M  V30 75 H 2.6009 0.281 0.0911 0
M  V30 76 H -6.6481 5.3878 5.1173 0
M  V30 77 H -7.9392 6.1033 4.137 0
M  V30 78 H -7.517 4.3909 3.9381 0
M  V30 79 H 4.3937 -0.2085 -1.5837 0
M  V30 80 H 3.2595 -1.1682 -2.5282 0
M  V30 81 H 2.9368 -2.7076 -0.5799 0
M  V30 82 H 4.085 -1.7567 0.3661 0
M  V30 83 H 5.8524 -2.2098 -1.3795 0
M  V30 84 H 4.7179 -3.244 -2.2409 0
M  V30 85 H 5.7082 -3.6837 0.6288 0
M  V30 86 H 6.3412 -4.4824 -0.8063 0
M  V30 87 H 4.0596 -5.4751 -1.2373 0
M  V30 88 H 3.4843 -4.7533 0.2679 0
M  V30 89 H 5.2232 -6.0163 1.547 0
M  V30 90 H 5.7926 -6.7509 0.0464 0
M  V30 91 H 3.5305 -7.7685 -0.3141 0
M  V30 92 H 2.9613 -7.0352 1.187 0
M  V30 93 H 4.6983 -8.3095 2.4684 0
M  V30 94 H 5.2674 -9.043 0.9672 0
M  V30 95 H 3.0053 -10.0612 0.6072 0
M  V30 96 H 2.4362 -9.3276 2.1083 0
M  V30 97 H 4.1731 -10.602 3.3899 0
M  V30 98 H 4.7423 -11.3356 1.8888 0
M  V30 99 H 2.4802 -12.3538 1.5288 0
M  V30 100 H 1.911 -11.6202 3.0298 0
M  V30 101 H 3.648 -12.8947 4.3115 0
M  V30 102 H 4.2172 -13.6282 2.8106 0
M  V30 103 H 1.3859 -13.9183 3.954 0
M  V30 104 H 1.9552 -14.6519 2.4531 0
M  V30 105 H 2.0265 -16.2797 4.3136 0
M  V30 106 H 3.6682 -15.9522 3.7327 0
M  V30 107 H 3.0957 -15.2145 5.2419 0
M  V30 END ATOM
M  V30 BEGIN BOND
M  V30 1 1 1 2
M  V30 2 1 2 3
M  V30 3 1 2 4
M  V30 4 1 3 5
M  V30 5 1 3 6
M  V30 6 1 5 7
M  V30 7 1 6 8
M  V30 8 1 6 9
M  V30 9 2 7 10
M  V30 10 1 7 11
M  V30 11 1 8 12
M  V30 12 1 9 13
M  V30 13 1 9 14
M  V30 14 1 11 15
M  V30 15 1 11 16
M  V30 16 1 12 17
M  V30 17 1 12 18
M  V30 18 1 14 19
M  V30 19 1 15 20
M  V30 20 1 15 21
M  V30 21 1 16 22
M  V30 22 1 17 23
M  V30 23 1 18 24
M  V30 24 1 22 25
M  V30 25 1 24 26
M  V30 26 1 25 27
M  V30 27 2 26 28
M  V30 28 1 26 29
M  V30 29 1 27 30
M  V30 30 1 29 31
M  V30 31 1 31 32
M  V30 32 1 32 33
M  V30 33 1 33 34
M  V30 34 1 34 35
M  V30 35 1 35 36
M  V30 36 1 36 37
M  V30 37 1 37 38
M  V30 38 1 38 39
M  V30 39 1 39 40
M  V30 40 1 40 41
M  V30 41 1 41 42
M  V30 42 1 42 43
M  V30 43 1 43 44
M  V30 44 1 14 18
M  V30 45 1 20 22
M  V30 46 1 2 45
M  V30 47 1 3 46
M  V30 48 1 4 47
M  V30 49 1 4 48
M  V30 50 1 4 49
M  V30 51 1 5 50
M  V30 52 1 6 51
M  V30 53 1 9 52
M  V30 54 1 11 53
M  V30 55 1 12 54
M  V30 56 1 13 55
M  V30 57 1 14 56
M  V30 58 1 16 57
M  V30 59 1 16 58
M  V30 60 1 18 59
M  V30 61 1 19 60
M  V30 62 1 20 61
M  V30 63 1 20 62
M  V30 64 1 21 63
M  V30 65 1 21 64
M  V30 66 1 21 65
M  V30 67 1 22 66
M  V30 68 1 23 67
M  V30 69 1 23 68
M  V30 70 1 23 69
M  V30 71 1 25 70
M  V30 72 1 25 71
M  V30 73 1 27 72
M  V30 74 1 27 73
M  V30 75 1 29 74
M  V30 76 1 29 75
M  V30 77 1 30 76
M  V30 78 1 30 77
M  V30 79 1 30 78
M  V30 80 1 31 79
M  V30 81 1 31 80
M  V30 82 1 32 81
M  V30 83 1 32 82
M  V30 84 1 33 83
M  V30 85 1 33 84
M  V30 86 1 34 85
M  V30 87 1 34 86
M  V30 88 1 35 87
M  V30 89 1 35 88
M  V30 90 1 36 89
M  V30 91 1 36 90
M  V30 92 1 37 91
M  V30 93 1 37 92
M  V30 94 1 38 93
M  V30 95 1 38 94
M  V30 96 1 39 95
M  V30 97 1 39 96
M  V30 98 1 40 97
M  V30 99 1 40 98
M  V30 100 1 41 99
M  V30 101 1 41 100
M  V30 102 1 42 101
M  V30 103 1 42 102
M  V30 104 1 43 103
M  V30 105 1 43 104
M  V30 106 1 44 105
M  V30 107 1 44 106
M  V30 108 1 44 107
M  V30 END BOND
M  V30 BEGIN COLLECTION
M  V30 MDLV30/STEABS ATOMS=(9 2 3 6 9 11 12 14 18 22)
M  V30 END COLLECTION
M  V30 END CTAB
M  END
>  <level_0>
5701

>  <index>
5701

>  <NO.>
5702

>  <Name>
clindamycin palmitate

>  <SMILES>
CCCCCCCCCCCCCCCC(=O)O[C@@H]1[C@@H](O)[C@@H](O)[C@@H]([C@H](NC(=O)[C@@H]2C[C@@H](CCC)CN2C)[C@H](C)Cl)O[C@@H]1SC

>  <logBB>


>  <Class>
-1

>  <MW>
662.41

>  <nHBAcc>
8

>  <nHBDon>
3

>  <SLogP>
6.42

>  <TopoPSA>
108.33

>  <MMFF94 Energy>
105.86

$$$$
CCCCCCCCCCCCCCCCCCCCCCO
Actelion Java MolfileCreator 2.0

  0  0  0  0  0  0              0 V3000
M  V30 BEGIN CTAB
M  V30 COUNTS 69 68 0 0 0
M  V30 BEGIN ATOM
M  V30 1 O -10.2136 1.5422 -8.1953 0
M  V30 2 C -9.5229 1.0005 -7.0766 0
M  V30 3 C -8.3456 1.9072 -6.7438 0
M  V30 4 C -7.5815 1.487 -5.4881 0
M  V30 5 C -6.874 0.1378 -5.6322 0
M  V30 6 C -6.0377 -0.1848 -4.3906 0
M  V30 7 C -5.3299 -1.5338 -4.5351 0
M  V30 8 C -4.5698 -1.9608 -3.2761 0
M  V30 9 C -3.3827 -1.0537 -2.9449 0
M  V30 10 C -2.5921 -1.5908 -1.7495 0
M  V30 11 C -1.4071 -0.6838 -1.4133 0
M  V30 12 C -0.6167 -1.2209 -0.219 0
M  V30 13 C 0.5681 -0.314 0.1171 0
M  V30 14 C 1.3584 -0.851 1.3115 0
M  V30 15 C 2.5434 0.0559 1.6477 0
M  V30 16 C 3.3337 -0.481 2.8421 0
M  V30 17 C 4.5186 0.4258 3.1783 0
M  V30 18 C 5.309 -0.1111 4.3727 0
M  V30 19 C 6.4939 0.7958 4.7089 0
M  V30 20 C 7.2843 0.2587 5.9033 0
M  V30 21 C 8.4692 1.1657 6.2396 0
M  V30 22 C 9.2589 0.629 7.4331 0
M  V30 23 C 10.4378 1.5277 7.7706 0
M  V30 24 H -10.9604 0.9486 -8.3839 0
M  V30 25 H -9.1894 -0.0072 -7.3391 0
M  V30 26 H -10.2196 0.9401 -6.2345 0
M  V30 27 H -7.665 1.9543 -7.6031 0
M  V30 28 H -8.7155 2.9317 -6.608 0
M  V30 29 H -8.2681 1.456 -4.6333 0
M  V30 30 H -6.8361 2.2608 -5.2661 0
M  V30 31 H -6.2258 0.1549 -6.5165 0
M  V30 32 H -7.6118 -0.6579 -5.7841 0
M  V30 33 H -6.6861 -0.202 -3.5063 0
M  V30 34 H -5.3006 0.6115 -4.239 0
M  V30 35 H -4.6405 -1.5012 -5.3876 0
M  V30 36 H -6.0752 -2.3064 -4.7616 0
M  V30 37 H -4.2061 -2.9846 -3.4283 0
M  V30 38 H -5.2595 -1.9946 -2.4239 0
M  V30 39 H -3.7352 -0.0421 -2.7146 0
M  V30 40 H -2.7226 -0.9783 -3.8173 0
M  V30 41 H -2.2289 -2.6012 -1.9729 0
M  V30 42 H -3.2533 -1.6699 -0.8778 0
M  V30 43 H -1.7698 0.3267 -1.1892 0
M  V30 44 H -0.7466 -0.6044 -2.2853 0
M  V30 45 H -0.254 -2.2314 -0.443 0
M  V30 46 H -1.2774 -1.3004 0.6528 0
M  V30 47 H 0.2052 0.6965 0.3412 0
M  V30 48 H 1.2287 -0.2344 -0.7546 0
M  V30 49 H 1.7212 -1.8615 1.0875 0
M  V30 50 H 0.6978 -0.9305 2.1834 0
M  V30 51 H 2.1805 1.0665 1.8718 0
M  V30 52 H 3.204 0.1354 0.7759 0
M  V30 53 H 3.6965 -1.4915 2.6181 0
M  V30 54 H 2.673 -0.5605 3.714 0
M  V30 55 H 4.1557 1.4364 3.4024 0
M  V30 56 H 5.1792 0.5054 2.3065 0
M  V30 57 H 5.6717 -1.1216 4.1487 0
M  V30 58 H 4.6483 -0.1906 5.2446 0
M  V30 59 H 6.131 1.8063 4.9331 0
M  V30 60 H 7.1545 0.8753 3.8371 0
M  V30 61 H 7.647 -0.7517 5.6793 0
M  V30 62 H 6.6236 0.1793 6.7752 0
M  V30 63 H 8.1065 2.1764 6.4636 0
M  V30 64 H 9.1299 1.2455 5.3677 0
M  V30 65 H 8.6039 0.5512 8.3087 0
M  V30 66 H 9.6273 -0.3796 7.2128 0
M  V30 67 H 10.9883 1.1253 8.6267 0
M  V30 68 H 11.1298 1.601 6.9256 0
M  V30 69 H 10.1007 2.5371 8.0276 0
M  V30 END ATOM
M  V30 BEGIN BOND
M  V30 1 1 1 2
M  V30 2 1 2 3
M  V30 3 1 3 4
M  V30 4 1 4 5
M  V30 5 1 5 6
M  V30 6 1 6 7
M  V30 7 1 7 8
M  V30 8 1 8 9
M  V30 9 1 9 10
M  V30 10 1 10 11
M  V30 11 1 11 12
M  V30 12 1 12 13
M  V30 13 1 13 14
M  V30 14 1 14 15
M  V30 15 1 15 16
M  V30 16 1 16 17
M  V30 17 1 17 18
M  V30 18 1 18 19
M  V30 19 1 19 20
M  V30 20 1 20 21
M  V30 21 1 21 22
M  V30 22 1 22 23
M  V30 23 1 1 24
M  V30 24 1 2 25
M  V30 25 1 2 26
M  V30 26 1 3 27
M  V30 27 1 3 28
M  V30 28 1 4 29
M  V30 29 1 4 30
M  V30 30 1 5 31
M  V30 31 1 5 32
M  V30 32 1 6 33
M  V30 33 1 6 34
M  V30 34 1 7 35
M  V30 35 1 7 36
M  V30 36 1 8 37
M  V30 37 1 8 38
M  V30 38 1 9 39
M  V30 39 1 9 40
M  V30 40 1 10 41
M  V30 41 1 10 42
M  V30 42 1 11 43
M  V30 43 1 11 44
M  V30 44 1 12 45
M  V30 45 1 12 46
M  V30 46 1 13 47
M  V30 47 1 13 48
M  V30 48 1 14 49
M  V30 49 1 14 50
M  V30 50 1 15 51
M  V30 51 1 15 52
M  V30 52 1 16 53
M  V30 53 1 16 54
M  V30 54 1 17 55
M  V30 55 1 17 56
M  V30 56 1 18 57
M  V30 57 1 18 58
M  V30 58 1 19 59
M  V30 59 1 19 60
M  V30 60 1 20 61
M  V30 61 1 20 62
M  V30 62 1 21 63
M  V30 63 1 21 64
M  V30 64 1 22 65
M  V30 65 1 22 66
M  V30 66 1 23 67
M  V30 67 1 23 68
M  V30 68 1 23 69
M  V30 END BOND
M  V30 END CTAB
M  END
>  <level_0>
5702

>  <index>
5702

>  <NO.>
5703

>  <Name>
1-docosanol

>  <SMILES>
CCCCCCCCCCCCCCCCCCCCCCO

>  <logBB>


>  <Class>
-1

>  <MW>
326.35

>  <nHBAcc>
1

>  <nHBDon>
1

>  <SLogP>
7.8

>  <TopoPSA>
20.23

>  <MMFF94 Energy>
-4.0634

$$$$
CCCCCCCCCCCCCCCCO
Actelion Java MolfileCreator 2.0

  0  0  0  0  0  0              0 V3000
M  V30 BEGIN CTAB
M  V30 COUNTS 51 50 0 0 0
M  V30 BEGIN ATOM
M  V30 1 O -8.098 -1.6154 -6.0107 0
M  V30 2 C -7.0091 -0.7372 -5.762 0
M  V30 3 C -6.2287 -1.2492 -4.5597 0
M  V30 4 C -5.0389 -0.3488 -4.2348 0
M  V30 5 C -4.2603 -0.87 -3.026 0
M  V30 6 C -3.0686 0.0318 -2.7007 0
M  V30 7 C -2.2899 -0.4893 -1.4918 0
M  V30 8 C -1.0982 0.4125 -1.1666 0
M  V30 9 C -0.3196 -0.1086 0.0423 0
M  V30 10 C 0.872 0.7932 0.3675 0
M  V30 11 C 1.6506 0.2719 1.5764 0
M  V30 12 C 2.8424 1.1738 1.9016 0
M  V30 13 C 3.6213 0.6525 3.1116 0
M  V30 14 C 4.8151 1.5547 3.432 0
M  V30 15 C 5.5648 1.144 4.7025 0
M  V30 16 C 6.2604 -0.2126 4.5863 0
M  V30 17 C 7.0831 -0.5216 5.8279 0
M  V30 18 H -8.5768 -1.2648 -6.7809 0
M  V30 19 H -7.4064 0.2649 -5.5718 0
M  V30 20 H -6.376 -0.7063 -6.6543 0
M  V30 21 H -6.8996 -1.3191 -3.6943 0
M  V30 22 H -5.8876 -2.273 -4.7575 0
M  V30 23 H -5.3932 0.6692 -4.0324 0
M  V30 24 H -4.3729 -0.2925 -5.1044 0
M  V30 25 H -3.9061 -1.8881 -3.2284 0
M  V30 26 H -4.9264 -0.9263 -2.1564 0
M  V30 27 H -3.4229 1.0499 -2.4983 0
M  V30 28 H -2.4025 0.0881 -3.5702 0
M  V30 29 H -1.9357 -1.5073 -1.6942 0
M  V30 30 H -2.9561 -0.5455 -0.6223 0
M  V30 31 H -1.4525 1.4306 -0.9641 0
M  V30 32 H -0.4321 0.4688 -2.036 0
M  V30 33 H 0.0345 -1.1267 -0.16 0
M  V30 34 H -0.9857 -0.1649 0.9118 0
M  V30 35 H 0.5177 1.8113 0.57 0
M  V30 36 H 1.5381 0.8495 -0.5018 0
M  V30 37 H 2.0047 -0.7461 1.374 0
M  V30 38 H 0.9846 0.2158 2.446 0
M  V30 39 H 2.4877 2.1919 2.1035 0
M  V30 40 H 3.509 1.2298 1.0324 0
M  V30 41 H 3.9654 -0.3664 2.9031 0
M  V30 42 H 2.9557 0.6004 3.9816 0
M  V30 43 H 4.4601 2.5845 3.5635 0
M  V30 44 H 5.5092 1.5665 2.583 0
M  V30 45 H 4.8709 1.1334 5.552 0
M  V30 46 H 6.316 1.9138 4.9192 0
M  V30 47 H 5.5218 -1.0093 4.4494 0
M  V30 48 H 6.9172 -0.221 3.709 0
M  V30 49 H 7.5694 -1.4969 5.727 0
M  V30 50 H 7.8623 0.2319 5.9804 0
M  V30 51 H 6.4504 -0.5479 6.7209 0
M  V30 END ATOM
M  V30 BEGIN BOND
M  V30 1 1 1 2
M  V30 2 1 2 3
M  V30 3 1 3 4
M  V30 4 1 4 5
M  V30 5 1 5 6
M  V30 6 1 6 7
M  V30 7 1 7 8
M  V30 8 1 8 9
M  V30 9 1 9 10
M  V30 10 1 10 11
M  V30 11 1 11 12
M  V30 12 1 12 13
M  V30 13 1 13 14
M  V30 14 1 14 15
M  V30 15 1 15 16
M  V30 16 1 16 17
M  V30 17 1 1 18
M  V30 18 1 2 19
M  V30 19 1 2 20
M  V30 20 1 3 21
M  V30 21 1 3 22
M  V30 22 1 4 23
M  V30 23 1 4 24
M  V30 24 1 5 25
M  V30 25 1 5 26
M  V30 26 1 6 27
M  V30 27 1 6 28
M  V30 28 1 7 29
M  V30 29 1 7 30
M  V30 30 1 8 31
M  V30 31 1 8 32
M  V30 32 1 9 33
M  V30 33 1 9 34
M  V30 34 1 10 35
M  V30 35 1 10 36
M  V30 36 1 11 37
M  V30 37 1 11 38
M  V30 38 1 12 39
M  V30 39 1 12 40
M  V30 40 1 13 41
M  V30 41 1 13 42
M  V30 42 1 14 43
M  V30 43 1 14 44
M  V30 44 1 15 45
M  V30 45 1 15 46
M  V30 46 1 16 47
M  V30 47 1 16 48
M  V30 48 1 17 49
M  V30 49 1 17 50
M  V30 50 1 17 51
M  V30 END BOND
M  V30 END CTAB
M  END
>  <level_0>
5703

>  <index>
5703

>  <NO.>
5704

>  <Name>
1-hexadecanol

>  <SMILES>
CCCCCCCCCCCCCCCCO

>  <logBB>


>  <Class>
-1

>  <MW>
242.26

>  <nHBAcc>
1

>  <nHBDon>
1

>  <SLogP>
5.46

>  <TopoPSA>
20.23

>  <MMFF94 Energy>
-3.6106

$$$$
CCCCCCCCCCCCCCCC[N+](C)(C)CCN(Cc1ccc(OC)cc1)c1ncccn1
Actelion Java MolfileCreator 2.0

  0  0  0  0  0  0              0 V3000
M  V30 BEGIN CTAB
M  V30 COUNTS 92 93 0 0 0
M  V30 BEGIN ATOM
M  V30 1 O 0.4677 0.8575 -1.5596 0
M  V30 2 C 1.7587 1.0702 -1.1639 0
M  V30 3 C 0.1885 -0.3988 -2.1685 0
M  V30 4 C 2.7306 0.0851 -0.9946 0
M  V30 5 C 2.0805 2.4031 -0.8997 0
M  V30 6 C 4.0195 0.4344 -0.577 0
M  V30 7 C 3.3673 2.7564 -0.489 0
M  V30 8 C 4.3502 1.7725 -0.3184 0
M  V30 9 C 5.7479 2.1538 0.1284 0
M  V30 10 N 5.7672 2.6479 1.5022 0
M  V30 11 C 6.8267 3.4628 1.8681 0
M  V30 12 C 5.0439 1.9728 2.5721 0
M  V30 13 N 7.6738 3.8965 0.9253 0
M  V30 14 N 6.9568 3.7972 3.1678 0
M  V30 15 C 4.0088 2.9207 3.2223 0
M  V30 16 C 8.6948 4.6892 1.3047 0
M  V30 17 C 7.9959 4.5916 3.5033 0
M  V30 18 N 3.3148 2.356 4.4937 0 CHG=1
M  V30 19 C 8.9078 5.0736 2.6013 0
M  V30 20 C 2.6096 1.0102 4.2565 0
M  V30 21 C 4.3616 2.1697 5.5987 0
M  V30 22 C 2.3208 3.411 4.9876 0
M  V30 23 C 1.4654 1.0863 3.2459 0
M  V30 24 C 0.8898 -0.3061 2.9717 0
M  V30 25 C -0.3588 -0.2236 2.0925 0
M  V30 26 C -0.8728 -1.6135 1.7178 0
M  V30 27 C -2.1457 -1.5241 0.8746 0
M  V30 28 C -2.6257 -2.9102 0.4424 0
M  V30 29 C -3.8917 -2.8181 -0.4124 0
M  V30 30 C -4.3662 -4.2053 -0.8502 0
M  V30 31 C -5.6917 -4.1815 -1.6169 0
M  V30 32 C -5.5985 -3.4749 -2.9711 0
M  V30 33 C -6.9157 -3.5817 -3.7431 0
M  V30 34 C -6.8269 -2.8726 -5.0956 0
M  V30 35 C -8.143 -2.9796 -5.8675 0
M  V30 36 C -8.0542 -2.2709 -7.2188 0
M  V30 37 C -9.3607 -2.3749 -7.9893 0
M  V30 38 H 0.8559 -0.5881 -3.0159 0
M  V30 39 H -0.8364 -0.3647 -2.5503 0
M  V30 40 H 0.2435 -1.2093 -1.4351 0
M  V30 41 H 2.5186 -0.9623 -1.1844 0
M  V30 42 H 1.3268 3.1749 -1.0405 0
M  V30 43 H 4.7671 -0.349 -0.4667 0
M  V30 44 H 3.6056 3.8043 -0.3168 0
M  V30 45 H 6.1003 2.905 -0.5907 0
M  V30 46 H 6.4224 1.2925 0.0424 0
M  V30 47 H 4.5226 1.091 2.1876 0
M  V30 48 H 5.7519 1.576 3.3083 0
M  V30 49 H 3.2181 3.1684 2.5064 0
M  V30 50 H 4.4625 3.8703 3.5263 0
M  V30 51 H 9.3544 5.0124 0.5041 0
M  V30 52 H 8.0754 4.8373 4.5584 0
M  V30 53 H 9.7336 5.709 2.8888 0
M  V30 54 H 3.3735 0.2921 3.9403 0
M  V30 55 H 2.2262 0.6814 5.2306 0
M  V30 56 H 5.0181 1.3386 5.3312 0
M  V30 57 H 3.8371 1.9379 6.531 0
M  V30 58 H 4.9303 3.0983 5.7031 0
M  V30 59 H 1.7703 2.9972 5.8375 0
M  V30 60 H 2.8826 4.2993 5.2934 0
M  V30 61 H 1.6403 3.6689 4.1721 0
M  V30 62 H 0.6655 1.7286 3.6302 0
M  V30 63 H 1.8041 1.5149 2.2982 0
M  V30 64 H 0.6343 -0.7976 3.9184 0
M  V30 65 H 1.6523 -0.9231 2.4809 0
M  V30 66 H -0.1329 0.3402 1.181 0
M  V30 67 H -1.1429 0.3288 2.6246 0
M  V30 68 H -1.0756 -2.1913 2.6276 0
M  V30 69 H -0.0968 -2.1507 1.1591 0
M  V30 70 H -1.9588 -0.9078 -0.0124 0
M  V30 71 H -2.9335 -1.025 1.452 0
M  V30 72 H -2.8236 -3.5234 1.33 0
M  V30 73 H -1.8344 -3.4115 -0.128 0
M  V30 74 H -3.6847 -2.197 -1.2909 0
M  V30 75 H -4.685 -2.3209 0.1588 0
M  V30 76 H -4.4975 -4.8354 0.0383 0
M  V30 77 H -3.5944 -4.6841 -1.465 0
M  V30 78 H -6.464 -3.7036 -1.0018 0
M  V30 79 H -6.0122 -5.2186 -1.7758 0
M  V30 80 H -4.7893 -3.9192 -3.563 0
M  V30 81 H -5.3537 -2.4167 -2.827 0
M  V30 82 H -7.7259 -3.1409 -3.1495 0
M  V30 83 H -7.1662 -4.6381 -3.8986 0
M  V30 84 H -6.0163 -3.3131 -5.6886 0
M  V30 85 H -6.5769 -1.8159 -4.9407 0
M  V30 86 H -8.9538 -2.5392 -5.2743 0
M  V30 87 H -8.3934 -4.0361 -6.0224 0
M  V30 88 H -7.8083 -1.213 -7.0691 0
M  V30 89 H -7.2478 -2.7101 -7.8174 0
M  V30 90 H -9.2748 -1.8614 -8.9521 0
M  V30 91 H -9.6193 -3.4206 -8.1838 0
M  V30 92 H -10.1829 -1.9153 -7.4314 0
M  V30 END ATOM
M  V30 BEGIN BOND
M  V30 1 1 1 2
M  V30 2 1 1 3
M  V30 3 2 2 4
M  V30 4 1 2 5
M  V30 5 1 4 6
M  V30 6 2 5 7
M  V30 7 2 6 8
M  V30 8 1 8 9
M  V30 9 1 9 10
M  V30 10 1 10 11
M  V30 11 1 10 12
M  V30 12 2 11 13
M  V30 13 1 11 14
M  V30 14 1 12 15
M  V30 15 1 13 16
M  V30 16 2 14 17
M  V30 17 1 15 18
M  V30 18 2 16 19
M  V30 19 1 18 20
M  V30 20 1 18 21
M  V30 21 1 18 22
M  V30 22 1 20 23
M  V30 23 1 23 24
M  V30 24 1 24 25
M  V30 25 1 25 26
M  V30 26 1 26 27
M  V30 27 1 27 28
M  V30 28 1 28 29
M  V30 29 1 29 30
M  V30 30 1 30 31
M  V30 31 1 31 32
M  V30 32 1 32 33
M  V30 33 1 33 34
M  V30 34 1 34 35
M  V30 35 1 35 36
M  V30 36 1 36 37
M  V30 37 1 7 8
M  V30 38 1 17 19
M  V30 39 1 3 38
M  V30 40 1 3 39
M  V30 41 1 3 40
M  V30 42 1 4 41
M  V30 43 1 5 42
M  V30 44 1 6 43
M  V30 45 1 7 44
M  V30 46 1 9 45
M  V30 47 1 9 46
M  V30 48 1 12 47
M  V30 49 1 12 48
M  V30 50 1 15 49
M  V30 51 1 15 50
M  V30 52 1 16 51
M  V30 53 1 17 52
M  V30 54 1 19 53
M  V30 55 1 20 54
M  V30 56 1 20 55
M  V30 57 1 21 56
M  V30 58 1 21 57
M  V30 59 1 21 58
M  V30 60 1 22 59
M  V30 61 1 22 60
M  V30 62 1 22 61
M  V30 63 1 23 62
M  V30 64 1 23 63
M  V30 65 1 24 64
M  V30 66 1 24 65
M  V30 67 1 25 66
M  V30 68 1 25 67
M  V30 69 1 26 68
M  V30 70 1 26 69
M  V30 71 1 27 70
M  V30 72 1 27 71
M  V30 73 1 28 72
M  V30 74 1 28 73
M  V30 75 1 29 74
M  V30 76 1 29 75
M  V30 77 1 30 76
M  V30 78 1 30 77
M  V30 79 1 31 78
M  V30 80 1 31 79
M  V30 81 1 32 80
M  V30 82 1 32 81
M  V30 83 1 33 82
M  V30 84 1 33 83
M  V30 85 1 34 84
M  V30 86 1 34 85
M  V30 87 1 35 86
M  V30 88 1 35 87
M  V30 89 1 36 88
M  V30 90 1 36 89
M  V30 91 1 37 90
M  V30 92 1 37 91
M  V30 93 1 37 92
M  V30 END BOND
M  V30 END CTAB
M  END
>  <level_0>
5704

>  <index>
5704

>  <NO.>
5705

>  <Name>
thonzonium

>  <SMILES>
CCCCCCCCCCCCCCCC[N+](C)(C)CCN(Cc1ccc(OC)cc1)c1ncccn1

>  <logBB>


>  <Class>
-1

>  <MW>
511.44

>  <nHBAcc>
4

>  <nHBDon>
0

>  <SLogP>
8.05

>  <TopoPSA>
38.25

>  <MMFF94 Energy>
-15.86

$$$$
CCCCCCOC(=O)NC(=N)c1ccc(NCc2nc3cc(C(=O)N(CCC(=O)OCC)c4ccccn4)ccc3n2C)cc1
Actelion Java MolfileCreator 2.0

  0  0  0  0  0  0              0 V3000
M  V30 BEGIN CTAB
M  V30 COUNTS 87 90 0 0 0
M  V30 BEGIN ATOM
M  V30 1 O 5.2953 -3.1587 -6.8009 0
M  V30 2 C 5.1458 -2.1931 -6.0657 0
M  V30 3 O 6.0435 -1.1865 -5.9071 0
M  V30 4 N 4.0582 -1.9469 -5.2706 0
M  V30 5 C 7.2348 -1.3312 -6.6957 0
M  V30 6 C 2.9184 -2.7141 -5.1576 0
M  V30 7 C 8.1283 -0.1262 -6.4191 0
M  V30 8 N 2.737 -3.7842 -5.8534 0
M  V30 9 C 1.8764 -2.2378 -4.2085 0
M  V30 10 C 9.3944 -0.0894 -7.275 0
M  V30 11 C 0.5414 -2.5626 -4.4613 0
M  V30 12 C 2.1902 -1.4968 -3.0671 0
M  V30 13 C 10.3598 -1.2392 -6.9796 0
M  V30 14 C -0.471 -2.1268 -3.5974 0
M  V30 15 C 1.168 -1.0674 -2.2106 0
M  V30 16 C 11.6547 -1.0939 -7.78 0
M  V30 17 C -0.1778 -1.3665 -2.4614 0
M  V30 18 C 12.6174 -2.2354 -7.4941 0
M  V30 19 N -1.1336 -0.9198 -1.5807 0
M  V30 20 C -2.5612 -1.1522 -1.6915 0
M  V30 21 C -3.3443 -0.5394 -0.5617 0
M  V30 22 N -2.8474 0.2212 0.3987 0
M  V30 23 N -4.7022 -0.7091 -0.3957 0
M  V30 24 C -3.9073 0.5397 1.2083 0
M  V30 25 C -5.0874 -0.0304 0.7368 0
M  V30 26 C -5.5625 -1.4766 -1.264 0
M  V30 27 C -3.9245 1.3232 2.3698 0
M  V30 28 C -6.3194 0.1448 1.3804 0
M  V30 29 C -5.1442 1.4877 3.0407 0
M  V30 30 C -6.325 0.9245 2.5426 0
M  V30 31 C -5.2246 2.3234 4.2642 0
M  V30 32 O -6.0487 3.239 4.2704 0
M  V30 33 N -4.3688 2.0637 5.3349 0
M  V30 34 C -3.6858 0.8381 5.4765 0
M  V30 35 C -4.4305 2.9284 6.513 0
M  V30 36 N -4.4123 -0.2993 5.4539 0
M  V30 37 C -2.304 0.8477 5.6414 0
M  V30 38 C -5.5618 2.5337 7.4582 0
M  V30 39 C -3.7395 -1.4637 5.5801 0
M  V30 40 C -1.6374 -0.3669 5.7742 0
M  V30 41 C -5.5931 3.4524 8.6489 0
M  V30 42 C -2.3672 -1.5482 5.7416 0
M  V30 43 O -4.7087 4.2407 8.9532 0
M  V30 44 O -6.7434 3.2518 9.3518 0
M  V30 45 C -6.9099 4.0591 10.5265 0
M  V30 46 C -7.5346 5.3927 10.1615 0
M  V30 47 H 4.128 -1.082 -4.7587 0
M  V30 48 H 6.967 -1.3657 -7.7581 0
M  V30 49 H 7.7404 -2.2598 -6.4102 0
M  V30 50 H 7.5513 0.79 -6.599 0
M  V30 51 H 8.3904 -0.1018 -5.3539 0
M  V30 52 H 3.5626 -3.9516 -6.4511 0
M  V30 53 H 9.9049 0.8638 -7.0898 0
M  V30 54 H 9.1203 -0.0992 -8.3369 0
M  V30 55 H 0.2814 -3.1572 -5.335 0
M  V30 56 H 3.216 -1.2665 -2.7995 0
M  V30 57 H 9.8903 -2.1973 -7.2291 0
M  V30 58 H 10.5911 -1.2592 -5.9078 0
M  V30 59 H -1.4936 -2.401 -3.8372 0
M  V30 60 H 1.4343 -0.4958 -1.3237 0
M  V30 61 H 11.4289 -1.0737 -8.8525 0
M  V30 62 H 12.1414 -0.1433 -7.5326 0
M  V30 63 H 13.536 -2.1112 -8.0759 0
M  V30 64 H 12.888 -2.2639 -6.4338 0
M  V30 65 H 12.1734 -3.1995 -7.7618 0
M  V30 66 H -0.8685 -0.3465 -0.7836 0
M  V30 67 H -2.7539 -2.2316 -1.7011 0
M  V30 68 H -2.9274 -0.7274 -2.6337 0
M  V30 69 H -5.3324 -2.5357 -1.1238 0
M  V30 70 H -6.6102 -1.2887 -1.0216 0
M  V30 71 H -5.377 -1.1766 -2.2985 0
M  V30 72 H -3.0102 1.7852 2.7206 0
M  V30 73 H -7.2376 -0.2948 1.0069 0
M  V30 74 H -7.2622 1.0911 3.0713 0
M  V30 75 H -3.4643 2.9127 7.0316 0
M  V30 76 H -4.5803 3.9617 6.1742 0
M  V30 77 H -1.7487 1.7794 5.6488 0
M  V30 78 H -6.5242 2.597 6.9386 0
M  V30 79 H -5.4253 1.5083 7.818 0
M  V30 80 H -4.3546 -2.3583 5.5459 0
M  V30 81 H -0.558 -0.3901 5.8943 0
M  V30 82 H -1.8789 -2.5117 5.8355 0
M  V30 83 H -5.9597 4.1923 11.0563 0
M  V30 84 H -7.5785 3.5114 11.1988 0
M  V30 85 H -7.7201 5.9923 11.0572 0
M  V30 86 H -6.8839 5.9608 9.4893 0
M  V30 87 H -8.4826 5.2418 9.6348 0
M  V30 END ATOM
M  V30 BEGIN BOND
M  V30 1 2 1 2
M  V30 2 1 2 3
M  V30 3 1 2 4
M  V30 4 1 3 5
M  V30 5 1 4 6
M  V30 6 1 5 7
M  V30 7 2 6 8
M  V30 8 1 6 9
M  V30 9 1 7 10
M  V30 10 2 9 11
M  V30 11 1 9 12
M  V30 12 1 10 13
M  V30 13 1 11 14
M  V30 14 2 12 15
M  V30 15 1 13 16
M  V30 16 2 14 17
M  V30 17 1 16 18
M  V30 18 1 17 19
M  V30 19 1 19 20
M  V30 20 1 20 21
M  V30 21 2 21 22
M  V30 22 1 21 23
M  V30 23 1 22 24
M  V30 24 1 23 25
M  V30 25 1 23 26
M  V30 26 1 24 27
M  V30 27 1 25 28
M  V30 28 2 27 29
M  V30 29 2 28 30
M  V30 30 1 29 31
M  V30 31 2 31 32
M  V30 32 1 31 33
M  V30 33 1 33 34
M  V30 34 1 33 35
M  V30 35 2 34 36
M  V30 36 1 34 37
M  V30 37 1 35 38
M  V30 38 1 36 39
M  V30 39 2 37 40
M  V30 40 1 38 41
M  V30 41 2 39 42
M  V30 42 2 41 43
M  V30 43 1 41 44
M  V30 44 1 44 45
M  V30 45 1 45 46
M  V30 46 1 15 17
M  V30 47 2 24 25
M  V30 48 1 29 30
M  V30 49 1 40 42
M  V30 50 1 4 47
M  V30 51 1 5 48
M  V30 52 1 5 49
M  V30 53 1 7 50
M  V30 54 1 7 51
M  V30 55 1 8 52
M  V30 56 1 10 53
M  V30 57 1 10 54
M  V30 58 1 11 55
M  V30 59 1 12 56
M  V30 60 1 13 57
M  V30 61 1 13 58
M  V30 62 1 14 59
M  V30 63 1 15 60
M  V30 64 1 16 61
M  V30 65 1 16 62
M  V30 66 1 18 63
M  V30 67 1 18 64
M  V30 68 1 18 65
M  V30 69 1 19 66
M  V30 70 1 20 67
M  V30 71 1 20 68
M  V30 72 1 26 69
M  V30 73 1 26 70
M  V30 74 1 26 71
M  V30 75 1 27 72
M  V30 76 1 28 73
M  V30 77 1 30 74
M  V30 78 1 35 75
M  V30 79 1 35 76
M  V30 80 1 37 77
M  V30 81 1 38 78
M  V30 82 1 38 79
M  V30 83 1 39 80
M  V30 84 1 40 81
M  V30 85 1 42 82
M  V30 86 1 45 83
M  V30 87 1 45 84
M  V30 88 1 46 85
M  V30 89 1 46 86
M  V30 90 1 46 87
M  V30 END BOND
M  V30 END CTAB
M  END
>  <level_0>
5706

>  <index>
5706

>  <NO.>
5707

>  <Name>
bibr 1048

>  <SMILES>
CCCCCCOC(=O)NC(=N)c1ccc(NCc2nc3cc(C(=O)N(CCC(=O)OCC)c4ccccn4)ccc3n2C)cc1

>  <logBB>


>  <Class>
-1

>  <MW>
627.32

>  <nHBAcc>
9

>  <nHBDon>
3

>  <SLogP>
5.81

>  <TopoPSA>
151.53

>  <MMFF94 Energy>
-54.93

$$$$
CCCCN1CC(O)C(O)C(O)C1CO
Actelion Java MolfileCreator 2.0

  0  0  0  0  0  0              0 V3000
M  V30 BEGIN CTAB
M  V30 COUNTS 36 36 0 0 0
M  V30 BEGIN ATOM
M  V30 1 O -3.9154 -1.0951 -1.5647 0
M  V30 2 C -2.9035 -0.6284 -0.6608 0
M  V30 3 C -1.9724 -1.778 -0.2323 0
M  V30 4 C -2.0963 0.4752 -1.3616 0
M  V30 5 O -2.7004 -2.8205 0.4241 0
M  V30 6 C -0.7919 -1.2315 0.6278 0
M  V30 7 O -1.5952 -0.035 -2.6142 0
M  V30 8 C -0.9115 0.9481 -0.5045 0
M  V30 9 N -0.0447 -0.1964 -0.1451 0
M  V30 10 C -1.2322 -0.7794 2.052 0
M  V30 11 C 1.1882 0.225 0.5405 0
M  V30 12 O -1.9772 -1.7999 2.7133 0
M  V30 13 C 2.2035 0.8532 -0.424 0
M  V30 14 C 3.5191 1.1691 0.2912 0
M  V30 15 C 4.5323 1.7928 -0.6553 0
M  V30 16 H -3.4563 -1.2562 -2.4122 0
M  V30 17 H -3.4298 -0.2275 0.2121 0
M  V30 18 H -1.5632 -2.2533 -1.1328 0
M  V30 19 H -2.7512 1.3164 -1.6123 0
M  V30 20 H -2.7124 -2.6176 1.383 0
M  V30 21 H -0.1299 -2.0967 0.7771 0
M  V30 22 H -0.7238 -0.4326 -2.4128 0
M  V30 23 H -0.3419 1.6633 -1.1072 0
M  V30 24 H -1.2687 1.4809 0.3835 0
M  V30 25 H -0.3562 -0.5591 2.6704 0
M  V30 26 H -1.8631 0.1129 2.02 0
M  V30 27 H 1.669 -0.6537 0.9895 0
M  V30 28 H 0.9671 0.922 1.3586 0
M  V30 29 H -2.1133 -1.5053 3.6331 0
M  V30 30 H 1.8065 1.7787 -0.855 0
M  V30 31 H 2.3968 0.1641 -1.2556 0
M  V30 32 H 3.3335 1.8573 1.1241 0
M  V30 33 H 3.9425 0.2515 0.7159 0
M  V30 34 H 5.4643 2.0093 -0.1238 0
M  V30 35 H 4.763 1.1161 -1.4841 0
M  V30 36 H 4.1535 2.7313 -1.0727 0
M  V30 END ATOM
M  V30 BEGIN BOND
M  V30 1 1 1 2
M  V30 2 1 2 3
M  V30 3 1 2 4
M  V30 4 1 3 5
M  V30 5 1 3 6
M  V30 6 1 4 7
M  V30 7 1 4 8
M  V30 8 1 6 9
M  V30 9 1 6 10
M  V30 10 1 9 11
M  V30 11 1 10 12
M  V30 12 1 11 13
M  V30 13 1 13 14
M  V30 14 1 14 15
M  V30 15 1 8 9
M  V30 16 1 1 16
M  V30 17 1 2 17
M  V30 18 1 3 18
M  V30 19 1 4 19
M  V30 20 1 5 20
M  V30 21 1 6 21
M  V30 22 1 7 22
M  V30 23 1 8 23
M  V30 24 1 8 24
M  V30 25 1 10 25
M  V30 26 1 10 26
M  V30 27 1 11 27
M  V30 28 1 11 28
M  V30 29 1 12 29
M  V30 30 1 13 30
M  V30 31 1 13 31
M  V30 32 1 14 32
M  V30 33 1 14 33
M  V30 34 1 15 34
M  V30 35 1 15 35
M  V30 36 1 15 36
M  V30 END BOND
M  V30 END CTAB
M  END
>  <level_0>
5711

>  <index>
5711

>  <NO.>
5712

>  <Name>
1-butyl-2-(hydroxymethyl)piperidine-3,4,5-triol

>  <SMILES>
CCCCN1CC(O)C(O)C(O)C1CO

>  <logBB>


>  <Class>
1

>  <MW>
219.15

>  <nHBAcc>
5

>  <nHBDon>
4

>  <SLogP>
-1.45

>  <TopoPSA>
84.16

>  <MMFF94 Energy>
103.53

$$$$
CCCC[C@H](NC(C)=O)C(=O)N[C@H]1CC(=O)NCCCC[C@@H](C(=O)O)NC(=O)[C@H](CC2=CNC3C=CC=CC23)NC(=O)[C@H](CCCN=C(N)N)NC(=O)[C@@H](Cc2ccccc2)NC(=O)[C@H](Cc2c[nH]cn2)NC1=O
Actelion Java MolfileCreator 2.0

  0  0  0  0  0  0              0 V3000
M  V30 BEGIN CTAB
M  V30 COUNTS 144 148 0 0 0
M  V30 BEGIN ATOM
M  V30 1 O -0.9469 0.4733 -0.6312 0
M  V30 2 C -0.4072 -0.5899 -0.9339 0
M  V30 3 N -0.8778 -1.8005 -0.4772 0
M  V30 4 C 0.8374 -0.6996 -1.8431 0 CFG=1
M  V30 5 C -2.2116 -1.9535 0.1096 0 CFG=2
M  V30 6 N 0.4464 -1.3594 -3.0916 0
M  V30 7 C 1.4662 0.6763 -2.0782 0
M  V30 8 C -2.2248 -1.4021 1.5513 0
M  V30 9 C -2.6445 -3.4233 0.0943 0
M  V30 10 C 0.3569 -2.7165 -3.2551 0
M  V30 11 C 0.6125 1.574 -2.956 0
M  V30 12 O -1.9954 -2.0798 2.5532 0
M  V30 13 N -2.385 -0.0345 1.6373 0
M  V30 14 C -4.0801 -3.5939 0.4494 0
M  V30 15 O 0.6518 -3.5136 -2.3628 0
M  V30 16 C -0.2189 -3.167 -4.612 0 CFG=1
M  V30 17 O -0.1223 1.1247 -3.8347 0
M  V30 18 N 0.7757 2.9181 -2.7217 0
M  V30 19 C -2.5079 0.6927 2.9102 0 CFG=1
M  V30 20 N -5.0654 -3.0557 -0.3443 0
M  V30 21 C -4.6391 -4.2423 1.5291 0
M  V30 22 N 0.1621 -4.5622 -4.8011 0
M  V30 23 C -1.7443 -2.9887 -4.5936 0
M  V30 24 C 0.0191 3.9176 -3.4434 0
M  V30 25 C -1.0956 1.0189 3.4661 0
M  V30 26 C -3.3623 1.9565 2.7249 0
M  V30 27 C -6.1985 -3.3749 0.2374 0
M  V30 28 N -5.9893 -4.0941 1.379 0
M  V30 29 C 0.5751 -5.0613 -6.0094 0
M  V30 30 C -2.3959 -3.2567 -5.9527 0
M  V30 31 C -1.3685 4.1815 -2.8428 0
M  V30 32 O -0.7588 2.1134 3.9084 0
M  V30 33 N -0.2426 -0.0616 3.4771 0
M  V30 34 C -4.1771 2.2981 3.9521 0
M  V30 35 O 0.6264 -4.3987 -7.0392 0
M  V30 36 C 0.9308 -6.5221 -5.9725 0
M  V30 37 C -3.8998 -2.9828 -5.9082 0
M  V30 38 C -1.3227 4.9533 -1.5177 0
M  V30 39 C 1.0633 -0.0889 4.1364 0 CFG=2
M  V30 40 C -5.4761 1.7901 4.0975 0
M  V30 41 C -3.6457 3.1002 4.9699 0
M  V30 42 C -4.5546 -3.2515 -7.2537 0
M  V30 43 C -1.0632 4.0595 -0.2969 0
M  V30 44 C 2.0665 0.9898 3.6708 0
M  V30 45 C 1.7058 -1.4766 3.9374 0
M  V30 46 C -6.2299 2.0873 5.2339 0
M  V30 47 C -4.4002 3.3944 6.1068 0
M  V30 48 C -0.2775 4.7983 0.7975 0 CFG=2
M  V30 49 O 3.0829 1.2563 4.3104 0
M  V30 50 N 1.8146 1.5305 2.433 0
M  V30 51 C 1.855 -1.8576 2.4569 0
M  V30 52 C -5.6922 2.8896 6.238 0
M  V30 53 N 0.6233 3.8835 1.4994 0
M  V30 54 C -1.2402 5.5016 1.7584 0
M  V30 55 C 2.6617 2.5713 1.8573 0 CFG=2
M  V30 56 C 2.3329 -3.2936 2.2674 0
M  V30 57 C 1.7778 3.4045 0.9083 0
M  V30 58 O -2.1295 6.2789 1.4482 0
M  V30 59 O -1.0256 5.2043 3.0577 0
M  V30 60 C 3.8877 1.9648 1.158 0
M  V30 61 N 2.1143 -3.6346 0.8653 0
M  V30 62 O 2.0739 3.6749 -0.2547 0
M  V30 63 C 5.0159 2.9313 0.9679 0
M  V30 64 C 2.6013 -4.7333 0.4225 0
M  V30 65 C 5.4932 3.3791 -0.2004 0
M  V30 66 C 5.8022 3.5465 2.1237 0
M  V30 67 N 2.393 -5.0781 -0.8573 0
M  V30 68 N 3.3214 -5.6627 1.075 0
M  V30 69 N 6.5269 4.2447 -0.0245 0
M  V30 70 C 6.4036 2.5118 3.0416 0
M  V30 71 C 6.8584 4.4541 1.3759 0
M  V30 72 C 7.726 2.3316 3.1707 0
M  V30 73 C 8.2968 4.0827 1.5818 0
M  V30 74 C 8.6801 3.1057 2.4165 0
M  V30 75 H -0.3076 -2.6311 -0.6482 0
M  V30 76 H 1.5645 -1.3381 -1.3259 0
M  V30 77 H -2.9024 -1.3493 -0.4933 0
M  V30 78 H 0.0714 -0.7434 -3.8168 0
M  V30 79 H 1.6488 1.1649 -1.117 0
M  V30 80 H 2.4316 0.5629 -2.5854 0
M  V30 81 H -2.0155 -4.0192 0.7679 0
M  V30 82 H -2.4917 -3.8385 -0.9105 0
M  V30 83 H -2.2238 0.4944 0.777 0
M  V30 84 H 0.2308 -2.5524 -5.4006 0
M  V30 85 H 1.3873 3.2304 -1.9635 0
M  V30 86 H -2.9793 0.01 3.6293 0
M  V30 87 H -4.2035 -4.7708 2.3657 0
M  V30 88 H 0.1838 -5.1466 -3.9727 0
M  V30 89 H -2.1864 -3.654 -3.8399 0
M  V30 90 H -1.9897 -1.9656 -4.281 0
M  V30 91 H -0.0971 3.5821 -4.4801 0
M  V30 92 H 0.6175 4.8346 -3.458 0
M  V30 93 H -2.747 2.8187 2.4408 0
M  V30 94 H -4.0609 1.8191 1.888 0
M  V30 95 H -7.1884 -3.1169 -0.115 0
M  V30 96 H -6.7061 -4.4482 1.9974 0
M  V30 97 H -2.2299 -4.2986 -6.2488 0
M  V30 98 H -1.9299 -2.6216 -6.7155 0
M  V30 99 H -1.9286 3.2469 -2.7221 0
M  V30 100 H -1.9237 4.7949 -3.5635 0
M  V30 101 H -0.6821 -0.9624 3.2809 0
M  V30 102 H 1.3809 -6.7904 -5.0124 0
M  V30 103 H 1.6505 -6.7418 -6.7658 0
M  V30 104 H 0.026 -7.116 -6.1262 0
M  V30 105 H -4.371 -3.6144 -5.146 0
M  V30 106 H -4.0807 -1.9399 -5.6227 0
M  V30 107 H -0.573 5.749 -1.5983 0
M  V30 108 H -2.2872 5.4554 -1.3705 0
M  V30 109 H 0.8815 0.0895 5.2031 0
M  V30 110 H -5.9105 1.16 3.3242 0
M  V30 111 H -2.6359 3.4967 4.8908 0
M  V30 112 H -5.6288 -3.0489 -7.1996 0
M  V30 113 H -4.127 -2.6122 -8.0326 0
M  V30 114 H -4.4205 -4.2957 -7.5536 0
M  V30 115 H -2.0248 3.7004 0.0925 0
M  V30 116 H -0.5272 3.1573 -0.5962 0
M  V30 117 H 2.6893 -1.511 4.4216 0
M  V30 118 H 1.0778 -2.2261 4.4361 0
M  V30 119 H -7.2372 1.6922 5.336 0
M  V30 120 H -3.977 4.0148 6.8926 0
M  V30 121 H 0.3671 5.5768 0.3726 0
M  V30 122 H 0.9699 1.2414 1.9514 0
M  V30 123 H 0.8974 -1.7399 1.9388 0
M  V30 124 H 2.5584 -1.1807 1.9576 0
M  V30 125 H -6.2785 3.1197 7.1236 0
M  V30 126 H 0.4124 3.6563 2.4738 0
M  V30 127 H 2.9713 3.2319 2.6764 0
M  V30 128 H 1.7537 -3.971 2.9053 0
M  V30 129 H 3.3914 -3.3605 2.5444 0
M  V30 130 H -1.711 5.7132 3.5399 0
M  V30 131 H 3.5925 1.5441 0.1887 0
M  V30 132 H 4.2659 1.1108 1.7336 0
M  V30 133 H 5.1528 3.1277 -1.1967 0
M  V30 134 H 5.141 4.1956 2.7112 0
M  V30 135 H 2.9673 -5.7439 -1.3429 0
M  V30 136 H 1.8266 -4.4407 -1.4196 0
M  V30 137 H 3.5451 -5.5493 2.0517 0
M  V30 138 H 3.5157 -6.5568 0.6545 0
M  V30 139 H 7.0576 4.6288 -0.7928 0
M  V30 140 H 5.72 1.9048 3.6306 0
M  V30 141 H 6.7033 5.5061 1.643 0
M  V30 142 H 8.1135 1.5759 3.8484 0
M  V30 143 H 9.044 4.6448 1.0323 0
M  V30 144 H 9.7321 2.866 2.5406 0
M  V30 END ATOM
M  V30 BEGIN BOND
M  V30 1 2 1 2
M  V30 2 1 2 3
M  V30 3 1 2 4
M  V30 4 1 3 5
M  V30 5 1 4 6
M  V30 6 1 4 7
M  V30 7 1 5 8
M  V30 8 1 5 9
M  V30 9 1 6 10
M  V30 10 1 7 11
M  V30 11 2 8 12
M  V30 12 1 8 13
M  V30 13 1 9 14
M  V30 14 2 10 15
M  V30 15 1 10 16
M  V30 16 2 11 17
M  V30 17 1 11 18
M  V30 18 1 13 19
M  V30 19 1 14 20
M  V30 20 2 14 21
M  V30 21 1 16 22
M  V30 22 1 16 23
M  V30 23 1 18 24
M  V30 24 1 19 25
M  V30 25 1 19 26
M  V30 26 2 20 27
M  V30 27 1 21 28
M  V30 28 1 22 29
M  V30 29 1 23 30
M  V30 30 1 24 31
M  V30 31 2 25 32
M  V30 32 1 25 33
M  V30 33 1 26 34
M  V30 34 2 29 35
M  V30 35 1 29 36
M  V30 36 1 30 37
M  V30 37 1 31 38
M  V30 38 1 33 39
M  V30 39 2 34 40
M  V30 40 1 34 41
M  V30 41 1 37 42
M  V30 42 1 38 43
M  V30 43 1 39 44
M  V30 44 1 39 45
M  V30 45 1 40 46
M  V30 46 2 41 47
M  V30 47 1 43 48
M  V30 48 2 44 49
M  V30 49 1 44 50
M  V30 50 1 45 51
M  V30 51 2 46 52
M  V30 52 1 48 53
M  V30 53 1 48 54
M  V30 54 1 50 55
M  V30 55 1 51 56
M  V30 56 1 53 57
M  V30 57 2 54 58
M  V30 58 1 54 59
M  V30 59 1 55 60
M  V30 60 1 56 61
M  V30 61 2 57 62
M  V30 62 1 60 63
M  V30 63 2 61 64
M  V30 64 2 63 65
M  V30 65 1 63 66
M  V30 66 1 64 67
M  V30 67 1 64 68
M  V30 68 1 65 69
M  V30 69 1 66 70
M  V30 70 1 66 71
M  V30 71 2 70 72
M  V30 72 1 71 73
M  V30 73 1 72 74
M  V30 74 1 27 28
M  V30 75 1 47 52
M  V30 76 1 55 57
M  V30 77 1 69 71
M  V30 78 2 73 74
M  V30 79 1 3 75
M  V30 80 1 4 76
M  V30 81 1 5 77
M  V30 82 1 6 78
M  V30 83 1 7 79
M  V30 84 1 7 80
M  V30 85 1 9 81
M  V30 86 1 9 82
M  V30 87 1 13 83
M  V30 88 1 16 84
M  V30 89 1 18 85
M  V30 90 1 19 86
M  V30 91 1 21 87
M  V30 92 1 22 88
M  V30 93 1 23 89
M  V30 94 1 23 90
M  V30 95 1 24 91
M  V30 96 1 24 92
M  V30 97 1 26 93
M  V30 98 1 26 94
M  V30 99 1 27 95
M  V30 100 1 28 96
M  V30 101 1 30 97
M  V30 102 1 30 98
M  V30 103 1 31 99
M  V30 104 1 31 100
M  V30 105 1 33 101
M  V30 106 1 36 102
M  V30 107 1 36 103
M  V30 108 1 36 104
M  V30 109 1 37 105
M  V30 110 1 37 106
M  V30 111 1 38 107
M  V30 112 1 38 108
M  V30 113 1 39 109
M  V30 114 1 40 110
M  V30 115 1 41 111
M  V30 116 1 42 112
M  V30 117 1 42 113
M  V30 118 1 42 114
M  V30 119 1 43 115
M  V30 120 1 43 116
M  V30 121 1 45 117
M  V30 122 1 45 118
M  V30 123 1 46 119
M  V30 124 1 47 120
M  V30 125 1 48 121
M  V30 126 1 50 122
M  V30 127 1 51 123
M  V30 128 1 51 124
M  V30 129 1 52 125
M  V30 130 1 53 126
M  V30 131 1 55 127
M  V30 132 1 56 128
M  V30 133 1 56 129
M  V30 134 1 59 130
M  V30 135 1 60 131
M  V30 136 1 60 132
M  V30 137 1 65 133
M  V30 138 1 66 134
M  V30 139 1 67 135
M  V30 140 1 67 136
M  V30 141 1 68 137
M  V30 142 1 68 138
M  V30 143 1 69 139
M  V30 144 1 70 140
M  V30 145 1 71 141
M  V30 146 1 72 142
M  V30 147 1 73 143
M  V30 148 1 74 144
M  V30 END BOND
M  V30 BEGIN COLLECTION
M  V30 MDLV30/STEABS ATOMS=(7 4 5 16 19 39 48 55)
M  V30 END COLLECTION
M  V30 END CTAB
M  END
>  <level_0>
5714

>  <index>
5714

>  <NO.>
5715

>  <Name>
bremelanotide

>  <SMILES>
CCCC[C@H](NC(C)=O)C(=O)N[C@H]1CC(=O)NCCCC[C@@H](C(=O)O)NC(=O)[C@H](CC2=CNC3C=CC=CC23)NC(=O)[C@H](CCCN=C(N)N)NC(=O)[C@@H](Cc2ccccc2)NC(=O)[C@H](Cc2c[nH]cn2)NC1=O

>  <logBB>


>  <Class>
-1

>  <MW>
1026.54

>  <nHBAcc>
12

>  <nHBDon>
13

>  <SLogP>
-1.39

>  <TopoPSA>
375.21

>  <MMFF94 Energy>
-62.975

$$$$
CCCCc1oc2ccc(NS(C)(=O)=O)cc2c1C(=O)c1ccc(OCCCN(CCCC)CCCC)cc1
Actelion Java MolfileCreator 2.0

  0  0  0  0  0  0              0 V3000
M  V30 BEGIN CTAB
M  V30 COUNTS 83 85 0 0 0
M  V30 BEGIN ATOM
M  V30 1 S 3.813 1.508 -8.1161 0
M  V30 2 O 3.3636 0.4971 -7.1862 0
M  V30 3 O 4.3633 1.1507 -9.4073 0
M  V30 4 N 2.5733 2.6 -8.4526 0
M  V30 5 C 5.0005 2.5618 -7.3107 0
M  V30 6 C 1.3854 2.6176 -7.6576 0
M  V30 7 C 1.4349 2.665 -6.2574 0
M  V30 8 C 0.1556 2.7018 -8.3225 0
M  V30 9 C 0.2307 2.7435 -5.528 0
M  V30 10 C -1.0532 2.7844 -7.6195 0
M  V30 11 C -0.1211 2.7771 -4.1417 0
M  V30 12 C -0.9625 2.7997 -6.2313 0
M  V30 13 C -1.5053 2.891 -4.1059 0
M  V30 14 C 0.802 2.7648 -3.0189 0
M  V30 15 O -2.0113 2.8848 -5.3737 0
M  V30 16 C -2.5193 3.0575 -3.0267 0
M  V30 17 O 1.8587 3.3908 -3.0425 0
M  V30 18 C 0.4797 1.9617 -1.8133 0
M  V30 19 C -2.426 4.4381 -2.3744 0
M  V30 20 C -0.1077 0.6968 -1.9136 0
M  V30 21 C 0.8167 2.4732 -0.5549 0
M  V30 22 C -3.4566 4.5931 -1.2561 0
M  V30 23 C -0.3869 -0.0291 -0.7532 0
M  V30 24 C 0.5341 1.7404 0.603 0
M  V30 25 C -3.3652 5.9617 -0.6005 0
M  V30 26 C -0.0721 0.4871 0.5077 0
M  V30 27 O -0.4033 -0.3279 1.5535 0
M  V30 28 C -0.059 0.1188 2.865 0
M  V30 29 C -0.4885 -0.942 3.8774 0
M  V30 30 C 0.2564 -2.2672 3.6595 0
M  V30 31 N -0.0626 -3.2458 4.7221 0
M  V30 32 C 1.0118 -4.2541 4.8369 0
M  V30 33 C -1.3599 -3.9 4.4506 0
M  V30 34 C 2.1973 -3.7228 5.656 0
M  V30 35 C -1.9897 -4.4579 5.7355 0
M  V30 36 C 3.2779 -4.794 5.818 0
M  V30 37 C -3.3588 -5.0797 5.4519 0
M  V30 38 C 4.4547 -4.2798 6.6321 0
M  V30 39 C -3.9939 -5.6309 6.7187 0
M  V30 40 H 2.4416 2.6646 -9.4631 0
M  V30 41 H 5.2512 3.388 -7.9787 0
M  V30 42 H 4.5861 2.9296 -6.3718 0
M  V30 43 H 5.8937 1.9659 -7.11 0
M  V30 44 H 2.3741 2.6382 -5.7172 0
M  V30 45 H 0.1174 2.6947 -9.4094 0
M  V30 46 H -2.0105 2.8399 -8.1232 0
M  V30 47 H -2.3987 2.2746 -2.2723 0
M  V30 48 H -3.5245 2.9227 -3.4458 0
M  V30 49 H -2.5834 5.2164 -3.1321 0
M  V30 50 H -1.4205 4.5966 -1.9658 0
M  V30 51 H -0.3448 0.2601 -2.8808 0
M  V30 52 H 1.2994 3.4454 -0.4715 0
M  V30 53 H -4.4668 4.4532 -1.6581 0
M  V30 54 H -3.2992 3.8195 -0.4955 0
M  V30 55 H -0.848 -1.0115 -0.8311 0
M  V30 56 H 0.8039 2.176 1.5597 0
M  V30 57 H -4.1108 6.0511 0.1957 0
M  V30 58 H -2.376 6.1198 -0.1589 0
M  V30 59 H -3.5482 6.7585 -1.3284 0
M  V30 60 H -0.5894 1.0518 3.0908 0
M  V30 61 H 1.0227 0.2822 2.9415 0
M  V30 62 H -0.2904 -0.5671 4.8888 0
M  V30 63 H -1.5693 -1.0949 3.7859 0
M  V30 64 H 0.0386 -2.6859 2.6684 0
M  V30 65 H 1.3271 -2.0341 3.6641 0
M  V30 66 H 1.343 -4.5872 3.8445 0
M  V30 67 H 0.6462 -5.1493 5.3526 0
M  V30 68 H -1.2492 -4.6905 3.6967 0
M  V30 69 H -2.0742 -3.1801 4.0352 0
M  V30 70 H 1.8451 -3.4083 6.6467 0
M  V30 71 H 2.64 -2.8418 5.1787 0
M  V30 72 H -2.1023 -3.6487 6.4683 0
M  V30 73 H -1.3437 -5.2157 6.1918 0
M  V30 74 H 2.8572 -5.6765 6.3138 0
M  V30 75 H 3.6347 -5.1139 4.8322 0
M  V30 76 H -4.0264 -4.3287 5.0136 0
M  V30 77 H -3.2549 -5.889 4.72 0
M  V30 78 H 5.2139 -5.0612 6.7358 0
M  V30 79 H 4.9202 -3.4162 6.1465 0
M  V30 80 H 4.1363 -3.9799 7.6356 0
M  V30 81 H -4.971 -6.0695 6.493 0
M  V30 82 H -3.3672 -6.4094 7.1652 0
M  V30 83 H -4.1401 -4.8394 7.4607 0
M  V30 END ATOM
M  V30 BEGIN BOND
M  V30 1 2 1 2
M  V30 2 2 1 3
M  V30 3 1 1 4
M  V30 4 1 1 5
M  V30 5 1 4 6
M  V30 6 2 6 7
M  V30 7 1 6 8
M  V30 8 1 7 9
M  V30 9 2 8 10
M  V30 10 1 9 11
M  V30 11 2 9 12
M  V30 12 2 11 13
M  V30 13 1 11 14
M  V30 14 1 12 15
M  V30 15 1 13 16
M  V30 16 2 14 17
M  V30 17 1 14 18
M  V30 18 1 16 19
M  V30 19 2 18 20
M  V30 20 1 18 21
M  V30 21 1 19 22
M  V30 22 1 20 23
M  V30 23 2 21 24
M  V30 24 1 22 25
M  V30 25 2 23 26
M  V30 26 1 26 27
M  V30 27 1 27 28
M  V30 28 1 28 29
M  V30 29 1 29 30
M  V30 30 1 30 31
M  V30 31 1 31 32
M  V30 32 1 31 33
M  V30 33 1 32 34
M  V30 34 1 33 35
M  V30 35 1 34 36
M  V30 36 1 35 37
M  V30 37 1 36 38
M  V30 38 1 37 39
M  V30 39 1 10 12
M  V30 40 1 13 15
M  V30 41 1 24 26
M  V30 42 1 4 40
M  V30 43 1 5 41
M  V30 44 1 5 42
M  V30 45 1 5 43
M  V30 46 1 7 44
M  V30 47 1 8 45
M  V30 48 1 10 46
M  V30 49 1 16 47
M  V30 50 1 16 48
M  V30 51 1 19 49
M  V30 52 1 19 50
M  V30 53 1 20 51
M  V30 54 1 21 52
M  V30 55 1 22 53
M  V30 56 1 22 54
M  V30 57 1 23 55
M  V30 58 1 24 56
M  V30 59 1 25 57
M  V30 60 1 25 58
M  V30 61 1 25 59
M  V30 62 1 28 60
M  V30 63 1 28 61
M  V30 64 1 29 62
M  V30 65 1 29 63
M  V30 66 1 30 64
M  V30 67 1 30 65
M  V30 68 1 32 66
M  V30 69 1 32 67
M  V30 70 1 33 68
M  V30 71 1 33 69
M  V30 72 1 34 70
M  V30 73 1 34 71
M  V30 74 1 35 72
M  V30 75 1 35 73
M  V30 76 1 36 74
M  V30 77 1 36 75
M  V30 78 1 37 76
M  V30 79 1 37 77
M  V30 80 1 38 78
M  V30 81 1 38 79
M  V30 82 1 38 80
M  V30 83 1 39 81
M  V30 84 1 39 82
M  V30 85 1 39 83
M  V30 END BOND
M  V30 END CTAB
M  END
>  <level_0>
5718

>  <index>
5718

>  <NO.>
5719

>  <Name>
dronedarone

>  <SMILES>
CCCCc1oc2ccc(NS(C)(=O)=O)cc2c1C(=O)c1ccc(OCCCN(CCCC)CCCC)cc1

>  <logBB>


>  <Class>
-1

>  <MW>
556.3

>  <nHBAcc>
6

>  <nHBDon>
1

>  <SLogP>
7.05

>  <TopoPSA>
88.85

>  <MMFF94 Energy>
9.9733

$$$$
CCCS(=O)(=O)Nc1ccc(F)c(C(=O)c2c[nH]c3ncc(-c4ccc(Cl)cc4)cc23)c1F
Actelion Java MolfileCreator 2.0

  0  0  0  0  0  0              0 V3000
M  V30 BEGIN CTAB
M  V30 COUNTS 51 54 0 0 0
M  V30 BEGIN ATOM
M  V30 1 Cl 8.3218 5.3497 0.1642 0
M  V30 2 C 7.1262 4.2376 0.7049 0
M  V30 3 C 6.8388 4.1353 2.0629 0
M  V30 4 C 6.4494 3.4447 -0.2165 0
M  V30 5 C 5.8668 3.2302 2.5019 0
M  V30 6 C 5.4775 2.5413 0.2256 0
M  V30 7 C 5.1694 2.4157 1.5921 0
M  V30 8 C 4.1474 1.4626 2.0529 0
M  V30 9 C 4.4004 0.5539 3.0871 0
M  V30 10 C 2.8699 1.4195 1.4713 0
M  V30 11 N 3.5389 -0.3646 3.5956 0
M  V30 12 C 1.9306 0.4845 1.9488 0
M  V30 13 C 2.3424 -0.3429 2.9847 0
M  V30 14 C 0.5751 0.1343 1.6321 0
M  V30 15 N 1.3037 -1.1682 3.3035 0
M  V30 16 C -0.2634 0.7501 0.6061 0
M  V30 17 C 0.223 -0.8873 2.5053 0
M  V30 18 O 0.0835 1.7328 -0.0436 0
M  V30 19 C -1.5931 0.1986 0.34 0
M  V30 20 C -1.7397 -1.0625 -0.2274 0
M  V30 21 C -2.7187 0.9654 0.6207 0
M  V30 22 F -0.6575 -1.8176 -0.4674 0
M  V30 23 C -3.0185 -1.5655 -0.5054 0
M  V30 24 F -2.6044 2.1772 1.1804 0
M  V30 25 C -3.9949 0.4724 0.3558 0
M  V30 26 N -3.1989 -2.8421 -1.1123 0
M  V30 27 C -4.1475 -0.7963 -0.2078 0
M  V30 28 S -2.8019 -3.0455 -2.7377 0
M  V30 29 O -1.5774 -2.3384 -3.0338 0
M  V30 30 O -2.9426 -4.4603 -3.0073 0
M  V30 31 C -4.1353 -2.1976 -3.5836 0
M  V30 32 C -5.503 -2.8128 -3.3202 0
M  V30 33 C -6.5974 -2.057 -4.0565 0
M  V30 34 H 7.3611 4.7572 2.785 0
M  V30 35 H 6.6698 3.5208 -1.2778 0
M  V30 36 H 5.6464 3.1785 3.5669 0
M  V30 37 H 4.9644 1.9242 -0.5106 0
M  V30 38 H 5.3795 0.5316 3.5636 0
M  V30 39 H 2.5944 2.1002 0.6697 0
M  V30 40 H 1.3543 -1.8708 4.0269 0
M  V30 41 H -0.6927 -1.4488 2.6304 0
M  V30 42 H -4.8621 1.0842 0.5913 0
M  V30 43 H -3.9668 -3.4343 -0.7989 0
M  V30 44 H -5.1484 -1.1679 -0.4111 0
M  V30 45 H -4.0988 -1.1443 -3.2885 0
M  V30 46 H -3.8953 -2.2513 -4.6516 0
M  V30 47 H -5.7284 -2.8103 -2.249 0
M  V30 48 H -5.5123 -3.8605 -3.6413 0
M  V30 49 H -7.5721 -2.5145 -3.8601 0
M  V30 50 H -6.6403 -1.013 -3.7298 0
M  V30 51 H -6.4263 -2.0728 -5.1376 0
M  V30 END ATOM
M  V30 BEGIN BOND
M  V30 1 1 1 2
M  V30 2 2 2 3
M  V30 3 1 2 4
M  V30 4 1 3 5
M  V30 5 2 4 6
M  V30 6 2 5 7
M  V30 7 1 7 8
M  V30 8 2 8 9
M  V30 9 1 8 10
M  V30 10 1 9 11
M  V30 11 2 10 12
M  V30 12 2 11 13
M  V30 13 1 12 14
M  V30 14 1 13 15
M  V30 15 1 14 16
M  V30 16 2 14 17
M  V30 17 2 16 18
M  V30 18 1 16 19
M  V30 19 2 19 20
M  V30 20 1 19 21
M  V30 21 1 20 22
M  V30 22 1 20 23
M  V30 23 1 21 24
M  V30 24 2 21 25
M  V30 25 1 23 26
M  V30 26 2 23 27
M  V30 27 1 26 28
M  V30 28 2 28 29
M  V30 29 2 28 30
M  V30 30 1 28 31
M  V30 31 1 31 32
M  V30 32 1 32 33
M  V30 33 1 6 7
M  V30 34 1 12 13
M  V30 35 1 15 17
M  V30 36 1 25 27
M  V30 37 1 3 34
M  V30 38 1 4 35
M  V30 39 1 5 36
M  V30 40 1 6 37
M  V30 41 1 9 38
M  V30 42 1 10 39
M  V30 43 1 15 40
M  V30 44 1 17 41
M  V30 45 1 25 42
M  V30 46 1 26 43
M  V30 47 1 27 44
M  V30 48 1 31 45
M  V30 49 1 31 46
M  V30 50 1 32 47
M  V30 51 1 32 48
M  V30 52 1 33 49
M  V30 53 1 33 50
M  V30 54 1 33 51
M  V30 END BOND
M  V30 END CTAB
M  END
>  <level_0>
5722

>  <index>
5722

>  <NO.>
5723

>  <Name>
vemurafenib

>  <SMILES>
CCCS(=O)(=O)Nc1ccc(F)c(C(=O)c2c[nH]c3ncc(-c4ccc(Cl)cc4)cc23)c1F

>  <logBB>


>  <Class>
-1

>  <MW>
489.07

>  <nHBAcc>
4

>  <nHBDon>
2

>  <SLogP>
5.54

>  <TopoPSA>
91.92

>  <MMFF94 Energy>
27.865

$$$$
CCN(CC)CCOc1ccc(/C(=C(/Cl)c2ccccc2)c2ccccc2)cc1
Actelion Java MolfileCreator 2.0

  0  0  0  0  0  0              0 V3000
M  V30 BEGIN CTAB
M  V30 COUNTS 57 59 0 0 0
M  V30 BEGIN ATOM
M  V30 1 Cl -4.0625 4.3019 -1.1935 0
M  V30 2 C -2.8796 3.0881 -0.7668 0
M  V30 3 C -1.7342 3.6472 -0.0196 0
M  V30 4 C -3.0234 1.7779 -1.0938 0
M  V30 5 C -0.4696 3.7415 -0.6171 0
M  V30 6 C -1.8996 4.0951 1.299 0
M  V30 7 C -2.0107 0.7795 -0.6534 0
M  V30 8 C -4.1983 1.33 -1.8881 0
M  V30 9 C 0.6116 4.2634 0.0955 0
M  V30 10 C -0.8172 4.6179 2.0093 0
M  V30 11 C -1.2088 0.1341 -1.6032 0
M  V30 12 C -1.8647 0.4421 0.6968 0
M  V30 13 C -5.2052 0.5722 -1.2764 0
M  V30 14 C -4.2985 1.6247 -3.2552 0
M  V30 15 C 0.4373 4.7001 1.4078 0
M  V30 16 C -0.2602 -0.8171 -1.2093 0
M  V30 17 C -0.9159 -0.5063 1.0863 0
M  V30 18 C -6.3022 0.1284 -2.0174 0
M  V30 19 C -5.3969 1.1806 -3.9936 0
M  V30 20 C -0.1068 -1.1371 0.1392 0
M  V30 21 C -6.3979 0.4338 -3.3743 0
M  V30 22 O 0.7742 -2.0442 0.6572 0
M  V30 23 C 1.7021 -2.6435 -0.2474 0
M  V30 24 C 2.6496 -3.5822 0.527 0
M  V30 25 N 3.4859 -2.9629 1.5796 0
M  V30 26 C 4.2947 -1.8276 1.1179 0
M  V30 27 C 4.2461 -4.0013 2.2932 0
M  V30 28 C 5.3517 -2.1408 0.0635 0
M  V30 29 C 4.9675 -3.4964 3.5386 0
M  V30 30 H -0.3189 3.4051 -1.6399 0
M  V30 31 H -2.8731 4.0363 1.7806 0
M  V30 32 H 1.59 4.3274 -0.3731 0
M  V30 33 H -0.9534 4.9601 3.0319 0
M  V30 34 H -1.3169 0.3665 -2.66 0
M  V30 35 H -2.4834 0.9134 1.4561 0
M  V30 36 H -5.1415 0.3241 -0.2196 0
M  V30 37 H -3.5244 2.2058 -3.7502 0
M  V30 38 H 1.2801 5.105 1.9621 0
M  V30 39 H 0.3352 -1.2911 -1.9815 0
M  V30 40 H -0.8037 -0.7551 2.1389 0
M  V30 41 H -7.0812 -0.456 -1.5351 0
M  V30 42 H -5.4718 1.4188 -5.0513 0
M  V30 43 H -7.2534 0.089 -3.9494 0
M  V30 44 H 2.2743 -1.88 -0.7861 0
M  V30 45 H 1.1521 -3.251 -0.977 0
M  V30 46 H 2.0135 -4.3359 1.0098 0
M  V30 47 H 3.2814 -4.1128 -0.1957 0
M  V30 48 H 3.635 -1.0413 0.7334 0
M  V30 49 H 4.7848 -1.352 1.9753 0
M  V30 50 H 3.5483 -4.7784 2.6312 0
M  V30 51 H 4.9646 -4.4965 1.6293 0
M  V30 52 H 5.8859 -1.2235 -0.2064 0
M  V30 53 H 4.9065 -2.5416 -0.8518 0
M  V30 54 H 6.0936 -2.855 0.4324 0
M  V30 55 H 5.371 -4.3435 4.1034 0
M  V30 56 H 4.2844 -2.9505 4.1978 0
M  V30 57 H 5.8082 -2.8434 3.2866 0
M  V30 END ATOM
M  V30 BEGIN BOND
M  V30 1 1 1 2
M  V30 2 1 2 3
M  V30 3 2 2 4
M  V30 4 2 3 5
M  V30 5 1 3 6
M  V30 6 1 4 7
M  V30 7 1 4 8
M  V30 8 1 5 9
M  V30 9 2 6 10
M  V30 10 2 7 11
M  V30 11 1 7 12
M  V30 12 2 8 13
M  V30 13 1 8 14
M  V30 14 2 9 15
M  V30 15 1 11 16
M  V30 16 2 12 17
M  V30 17 1 13 18
M  V30 18 2 14 19
M  V30 19 2 16 20
M  V30 20 2 18 21
M  V30 21 1 20 22
M  V30 22 1 22 23
M  V30 23 1 23 24
M  V30 24 1 24 25
M  V30 25 1 25 26
M  V30 26 1 25 27
M  V30 27 1 26 28
M  V30 28 1 27 29
M  V30 29 1 10 15
M  V30 30 1 17 20
M  V30 31 1 19 21
M  V30 32 1 5 30
M  V30 33 1 6 31
M  V30 34 1 9 32
M  V30 35 1 10 33
M  V30 36 1 11 34
M  V30 37 1 12 35
M  V30 38 1 13 36
M  V30 39 1 14 37
M  V30 40 1 15 38
M  V30 41 1 16 39
M  V30 42 1 17 40
M  V30 43 1 18 41
M  V30 44 1 19 42
M  V30 45 1 21 43
M  V30 46 1 23 44
M  V30 47 1 23 45
M  V30 48 1 24 46
M  V30 49 1 24 47
M  V30 50 1 26 48
M  V30 51 1 26 49
M  V30 52 1 27 50
M  V30 53 1 27 51
M  V30 54 1 28 52
M  V30 55 1 28 53
M  V30 56 1 28 54
M  V30 57 1 29 55
M  V30 58 1 29 56
M  V30 59 1 29 57
M  V30 END BOND
M  V30 END CTAB
M  END
>  <level_0>
5725

>  <index>
5725

>  <NO.>
5726

>  <Name>
clomiphene

>  <SMILES>
CCN(CC)CCOc1ccc(/C(=C(/Cl)c2ccccc2)c2ccccc2)cc1

>  <logBB>


>  <Class>
-1

>  <MW>
405.19

>  <nHBAcc>
2

>  <nHBDon>
0

>  <SLogP>
6.56

>  <TopoPSA>
12.47

>  <MMFF94 Energy>
109.65

$$$$
CCNC1CC(N)C(OC2OC(CN)=CCC2N)C(O)C1OC1OCC(O)C(NC)C1(C)O
Actelion Java MolfileCreator 2.0

  0  0  0  0  0  0              0 V3000
M  V30 BEGIN CTAB
M  V30 COUNTS 74 76 0 0 0
M  V30 BEGIN ATOM
M  V30 1 O 1.2637 -0.6317 2.4496 0
M  V30 2 C 1.0989 0.4234 3.3322 0
M  V30 3 C 0.5642 -1.849 2.7686 0
M  V30 4 C 0.5428 0.2879 4.5484 0
M  V30 5 C 1.6262 1.7501 2.8392 0
M  V30 6 O -0.8103 -1.7603 2.3695 0
M  V30 7 C 0.6371 -2.2021 4.2784 0
M  V30 8 C 0.0737 -1.0251 5.0872 0
M  V30 9 N 0.8696 2.2622 1.7055 0
M  V30 10 C -1.1256 -2.4855 1.17 0
M  V30 11 N 2.0161 -2.5416 4.7065 0
M  V30 12 C -0.496 -1.8552 -0.089 0
M  V30 13 C -2.6681 -2.5229 1.0286 0
M  V30 14 O -0.7241 -2.6924 -1.2333 0
M  V30 15 C -1.0552 -0.4359 -0.349 0
M  V30 16 N -3.2747 -3.1216 2.2325 0
M  V30 17 C -3.236 -1.1152 0.7993 0
M  V30 18 O -0.5855 0.1834 -1.5695 0
M  V30 19 C -2.6107 -0.4544 -0.4384 0
M  V30 20 C 0.8198 0.0955 -1.8144 0
M  V30 21 N -3.105 0.9344 -0.5997 0
M  V30 22 O 1.5397 0.5775 -0.6815 0
M  V30 23 C 1.1418 0.9676 -3.0653 0
M  V30 24 C -4.457 0.9948 -1.1538 0
M  V30 25 C 2.9554 0.4834 -0.8531 0
M  V30 26 O 0.7689 2.3419 -2.7769 0
M  V30 27 C 2.6786 0.9103 -3.3375 0
M  V30 28 C 0.3188 0.514 -4.2782 0
M  V30 29 C -4.846 2.4471 -1.3892 0
M  V30 30 C 3.4482 1.3033 -2.0493 0
M  V30 31 N 3.019 1.766 -4.5004 0
M  V30 32 O 3.2938 2.701 -1.7722 0
M  V30 33 C 4.4224 1.7143 -4.8769 0
M  V30 34 H 1.064 -2.6518 2.2119 0
M  V30 35 H 0.4202 1.1556 5.1917 0
M  V30 36 H 1.598 2.4996 3.6381 0
M  V30 37 H 2.6785 1.6401 2.5545 0
M  V30 38 H 0.0115 -3.0816 4.4727 0
M  V30 39 H 0.3559 -1.1144 6.143 0
M  V30 40 H -1.0228 -1.0409 5.0566 0
M  V30 41 H 1.0448 1.6478 0.9025 0
M  V30 42 H -0.126 2.1718 1.9009 0
M  V30 43 H -0.7778 -3.5219 1.2798 0
M  V30 44 H 2.6159 -1.737 4.5078 0
M  V30 45 H 2.0353 -2.6528 5.72 0
M  V30 46 H 0.5889 -1.7981 0.0361 0
M  V30 47 H -2.9379 -3.1573 0.1758 0
M  V30 48 H -0.3375 -3.5667 -1.0473 0
M  V30 49 H -0.766 0.2171 0.4821 0
M  V30 50 H -2.9405 -2.5921 3.0419 0
M  V30 51 H -4.2848 -2.9825 2.2102 0
M  V30 52 H -3.0614 -0.4863 1.6832 0
M  V30 53 H -4.3238 -1.1871 0.6776 0
M  V30 54 H -2.8809 -1.0236 -1.3385 0
M  V30 55 H 1.0899 -0.9472 -2.0194 0
M  V30 56 H -2.4648 1.401 -1.2482 0
M  V30 57 H -5.181 0.548 -0.4653 0
M  V30 58 H -4.5101 0.4548 -2.1059 0
M  V30 59 H 3.23 -0.5722 -0.9603 0
M  V30 60 H 3.4116 0.8582 0.0687 0
M  V30 61 H -0.0971 2.2807 -2.3254 0
M  V30 62 H 2.933 -0.1282 -3.5901 0
M  V30 63 H 0.4946 1.1599 -5.1452 0
M  V30 64 H 0.5558 -0.5174 -4.5574 0
M  V30 65 H -0.7562 0.5799 -4.0765 0
M  V30 66 H -4.8254 3.0191 -0.4553 0
M  V30 67 H -4.1692 2.9294 -2.1026 0
M  V30 68 H -5.8605 2.5041 -1.7969 0
M  V30 69 H 4.5213 1.1223 -2.1695 0
M  V30 70 H 2.7742 2.729 -4.2455 0
M  V30 71 H 2.3338 2.8943 -1.8527 0
M  V30 72 H 5.0708 2.1694 -4.1226 0
M  V30 73 H 4.7476 0.6852 -5.0591 0
M  V30 74 H 4.5649 2.272 -5.8079 0
M  V30 END ATOM
M  V30 BEGIN BOND
M  V30 1 1 1 2
M  V30 2 1 1 3
M  V30 3 2 2 4
M  V30 4 1 2 5
M  V30 5 1 3 6
M  V30 6 1 3 7
M  V30 7 1 4 8
M  V30 8 1 5 9
M  V30 9 1 6 10
M  V30 10 1 7 11
M  V30 11 1 10 12
M  V30 12 1 10 13
M  V30 13 1 12 14
M  V30 14 1 12 15
M  V30 15 1 13 16
M  V30 16 1 13 17
M  V30 17 1 15 18
M  V30 18 1 15 19
M  V30 19 1 18 20
M  V30 20 1 19 21
M  V30 21 1 20 22
M  V30 22 1 20 23
M  V30 23 1 21 24
M  V30 24 1 22 25
M  V30 25 1 23 26
M  V30 26 1 23 27
M  V30 27 1 23 28
M  V30 28 1 24 29
M  V30 29 1 25 30
M  V30 30 1 27 31
M  V30 31 1 30 32
M  V30 32 1 31 33
M  V30 33 1 7 8
M  V30 34 1 17 19
M  V30 35 1 27 30
M  V30 36 1 3 34
M  V30 37 1 4 35
M  V30 38 1 5 36
M  V30 39 1 5 37
M  V30 40 1 7 38
M  V30 41 1 8 39
M  V30 42 1 8 40
M  V30 43 1 9 41
M  V30 44 1 9 42
M  V30 45 1 10 43
M  V30 46 1 11 44
M  V30 47 1 11 45
M  V30 48 1 12 46
M  V30 49 1 13 47
M  V30 50 1 14 48
M  V30 51 1 15 49
M  V30 52 1 16 50
M  V30 53 1 16 51
M  V30 54 1 17 52
M  V30 55 1 17 53
M  V30 56 1 19 54
M  V30 57 1 20 55
M  V30 58 1 21 56
M  V30 59 1 24 57
M  V30 60 1 24 58
M  V30 61 1 25 59
M  V30 62 1 25 60
M  V30 63 1 26 61
M  V30 64 1 27 62
M  V30 65 1 28 63
M  V30 66 1 28 64
M  V30 67 1 28 65
M  V30 68 1 29 66
M  V30 69 1 29 67
M  V30 70 1 29 68
M  V30 71 1 30 69
M  V30 72 1 31 70
M  V30 73 1 32 71
M  V30 74 1 33 72
M  V30 75 1 33 73
M  V30 76 1 33 74
M  V30 END BOND
M  V30 END CTAB
M  END
>  <level_0>
5732

>  <index>
5732

>  <NO.>
5733

>  <Name>
netilmicin

>  <SMILES>
CCNC1CC(N)C(OC2OC(CN)=CCC2N)C(O)C1OC1OCC(O)C(NC)C1(C)O

>  <logBB>


>  <Class>
-1

>  <MW>
475.3

>  <nHBAcc>
12

>  <nHBDon>
8

>  <SLogP>
-3.2

>  <TopoPSA>
199.73

>  <MMFF94 Energy>
210.16

$$$$
CCOC(=O)CCCCCCCCC(C)c1ccccc1I
Actelion Java MolfileCreator 2.0

  0  0  0  0  0  0              0 V3000
M  V30 BEGIN CTAB
M  V30 COUNTS 51 51 0 0 0
M  V30 BEGIN ATOM
M  V30 1 I -3.569 4.3634 -4.0456 0
M  V30 2 C -2.9107 2.4381 -4.5857 0
M  V30 3 C -3.1559 1.2777 -3.8248 0
M  V30 4 C -2.1879 2.3661 -5.7876 0
M  V30 5 C -2.6525 0.056 -4.3231 0
M  V30 6 C -3.9282 1.2655 -2.5084 0 CFG=2
M  V30 7 C -1.7013 1.146 -6.2513 0
M  V30 8 C -1.9346 -0.0098 -5.5187 0
M  V30 9 C -3.0964 0.7311 -1.3195 0
M  V30 10 C -5.226 0.4576 -2.6548 0
M  V30 11 C -1.8806 1.6097 -0.9999 0
M  V30 12 C -1.1243 1.0859 0.2239 0
M  V30 13 C 0.0895 1.9625 0.5402 0
M  V30 14 C 0.8212 1.5502 1.8208 0
M  V30 15 C 1.4869 0.1756 1.7251 0
M  V30 16 C 2.2972 -0.1359 2.985 0
M  V30 17 C 2.9614 -1.5086 2.8936 0
M  V30 18 C 3.7652 -1.8305 4.1317 0
M  V30 19 O 3.8858 -1.1078 5.1105 0
M  V30 20 O 4.339 -3.0597 3.9899 0
M  V30 21 C 5.1299 -3.4707 5.1116 0
M  V30 22 C 5.6989 -4.8439 4.8119 0
M  V30 23 H -1.9956 3.2597 -6.3774 0
M  V30 24 H -2.8186 -0.8703 -3.7762 0
M  V30 25 H -4.2384 2.2764 -2.2339 0
M  V30 26 H -1.1434 1.1002 -7.1827 0
M  V30 27 H -1.5599 -0.966 -5.875 0
M  V30 28 H -3.7402 0.6916 -0.4306 0
M  V30 29 H -2.7658 -0.298 -1.5045 0
M  V30 30 H -5.032 -0.605 -2.8355 0
M  V30 31 H -5.83 0.5324 -1.7437 0
M  V30 32 H -5.8306 0.835 -3.4873 0
M  V30 33 H -2.2116 2.6385 -0.8127 0
M  V30 34 H -1.1987 1.6381 -1.8574 0
M  V30 35 H -0.8047 0.0556 0.0319 0
M  V30 36 H -1.7971 1.0632 1.0898 0
M  V30 37 H -0.2408 3.0025 0.656 0
M  V30 38 H 0.7889 1.9462 -0.3045 0
M  V30 39 H 0.1216 1.5655 2.6656 0
M  V30 40 H 1.5885 2.3052 2.0331 0
M  V30 41 H 2.1456 0.1463 0.8487 0
M  V30 42 H 0.7268 -0.6014 1.5879 0
M  V30 43 H 1.6414 -0.1005 3.8642 0
M  V30 44 H 3.0637 0.6352 3.1326 0
M  V30 45 H 2.1957 -2.2831 2.773 0
M  V30 46 H 3.6368 -1.5356 2.0311 0
M  V30 47 H 4.5026 -3.5181 6.0089 0
M  V30 48 H 5.9472 -2.7579 5.2689 0
M  V30 49 H 6.313 -5.2016 5.6431 0
M  V30 50 H 4.8937 -5.5638 4.6314 0
M  V30 51 H 6.3119 -4.8175 3.9048 0
M  V30 END ATOM
M  V30 BEGIN BOND
M  V30 1 1 1 2
M  V30 2 2 2 3
M  V30 3 1 2 4
M  V30 4 1 3 5
M  V30 5 1 3 6
M  V30 6 2 4 7
M  V30 7 2 5 8
M  V30 8 1 6 9
M  V30 9 1 6 10
M  V30 10 1 9 11
M  V30 11 1 11 12
M  V30 12 1 12 13
M  V30 13 1 13 14
M  V30 14 1 14 15
M  V30 15 1 15 16
M  V30 16 1 16 17
M  V30 17 1 17 18
M  V30 18 2 18 19
M  V30 19 1 18 20
M  V30 20 1 20 21
M  V30 21 1 21 22
M  V30 22 1 7 8
M  V30 23 1 4 23
M  V30 24 1 5 24
M  V30 25 1 6 25
M  V30 26 1 7 26
M  V30 27 1 8 27
M  V30 28 1 9 28
M  V30 29 1 9 29
M  V30 30 1 10 30
M  V30 31 1 10 31
M  V30 32 1 10 32
M  V30 33 1 11 33
M  V30 34 1 11 34
M  V30 35 1 12 35
M  V30 36 1 12 36
M  V30 37 1 13 37
M  V30 38 1 13 38
M  V30 39 1 14 39
M  V30 40 1 14 40
M  V30 41 1 15 41
M  V30 42 1 15 42
M  V30 43 1 16 43
M  V30 44 1 16 44
M  V30 45 1 17 45
M  V30 46 1 17 46
M  V30 47 1 21 47
M  V30 48 1 21 48
M  V30 49 1 22 49
M  V30 50 1 22 50
M  V30 51 1 22 51
M  V30 END BOND
M  V30 BEGIN COLLECTION
M  V30 MDLV30/STERAC1 ATOMS=(1 6)
M  V30 END COLLECTION
M  V30 END CTAB
M  END
>  <level_0>
5740

>  <index>
5740

>  <NO.>
5741

>  <Name>
ethyl 10-(2-iodophenyl)undecanoate

>  <SMILES>
CCOC(=O)CCCCCCCCC(C)c1ccccc1I

>  <logBB>


>  <Class>
-1

>  <MW>
416.12

>  <nHBAcc>
2

>  <nHBDon>
0

>  <SLogP>
6.08

>  <TopoPSA>
26.3

>  <MMFF94 Energy>
19.679

$$$$
CC[N+](CC)(CC)CCOc1cccc(OCC[N+](CC)(CC)CC)c1OCC[N+](CC)(CC)CC
Actelion Java MolfileCreator 2.0

  0  0  0  0  0  0              0 V3000
M  V30 BEGIN CTAB
M  V30 COUNTS 96 96 0 0 0
M  V30 BEGIN ATOM
M  V30 1 O -0.4669 -0.3113 -0.1556 0
M  V30 2 C 0.3635 0.4792 0.6072 0
M  V30 3 C -0.2649 -1.6967 0.1885 0
M  V30 4 C -0.0909 0.9729 1.8404 0
M  V30 5 C 1.6373 0.8362 0.1254 0
M  V30 6 C -1.1542 -2.5489 -0.7349 0
M  V30 7 O -1.363 0.7021 2.2889 0
M  V30 8 C 0.7646 1.7114 2.6561 0
M  V30 9 O 1.9823 0.4058 -1.1363 0
M  V30 10 C 2.4822 1.585 0.9533 0
M  V30 11 N -1.0438 -4.0952 -0.5467 0 CHG=1
M  V30 12 C -2.2208 1.8274 2.0274 0
M  V30 13 C 2.0509 2.01 2.214 0
M  V30 14 C 3.049 1.1329 -1.776 0
M  V30 15 C -1.8818 -4.7937 -1.6654 0
M  V30 16 C -1.5731 -4.4632 0.8697 0
M  V30 17 C 0.4266 -4.5915 -0.664 0
M  V30 18 C -3.6104 1.6427 2.6769 0
M  V30 19 C 3.0627 0.7718 -3.2753 0
M  V30 20 C -3.3788 -4.5359 -1.5743 0
M  V30 21 C -1.6611 -5.9579 1.1395 0
M  V30 22 C 1.1325 -4.1459 -1.9367 0
M  V30 23 N -3.6987 1.9022 4.2234 0 CHG=1
M  V30 24 N 4.1843 1.4709 -4.1346 0 CHG=1
M  V30 25 C -2.7013 1.0151 5.0172 0
M  V30 26 C -3.3548 3.3977 4.5006 0
M  V30 27 C -5.1464 1.5604 4.6996 0
M  V30 28 C 4.1428 0.8441 -5.562 0
M  V30 29 C 5.5594 1.1654 -3.4622 0
M  V30 30 C 3.8914 2.9949 -4.1554 0
M  V30 31 C -2.8951 -0.4813 4.8173 0
M  V30 32 C -3.5813 3.8438 5.9382 0
M  V30 33 C -6.2249 2.4682 4.1258 0
M  V30 34 C 2.8179 1.0258 -6.2878 0
M  V30 35 C 6.7658 1.1603 -4.3884 0
M  V30 36 C 4.7944 3.8192 -5.0527 0
M  V30 37 H -0.5479 -1.8529 1.2351 0
M  V30 38 H 0.7903 -1.9568 0.0578 0
M  V30 39 H -0.9381 -2.3277 -1.7863 0
M  V30 40 H -2.2009 -2.2751 -0.5629 0
M  V30 41 H 0.4463 2.058 3.635 0
M  V30 42 H 3.4949 1.8488 0.6627 0
M  V30 43 H -2.372 1.8824 0.9413 0
M  V30 44 H -1.7616 2.769 2.3443 0
M  V30 45 H 2.7238 2.5829 2.8516 0
M  V30 46 H 3.995 0.8442 -1.3082 0
M  V30 47 H 2.8813 2.2085 -1.6591 0
M  V30 48 H -1.669 -5.8662 -1.6146 0
M  V30 49 H -1.5127 -4.417 -2.6243 0
M  V30 50 H -2.5533 -3.9895 0.9863 0
M  V30 51 H -0.8904 -4.0074 1.5941 0
M  V30 52 H 0.9635 -4.2288 0.2186 0
M  V30 53 H 0.4059 -5.685 -0.6289 0
M  V30 54 H -4.2968 2.3574 2.2131 0
M  V30 55 H -3.9877 0.6301 2.5036 0
M  V30 56 H 2.0964 1.0442 -3.7125 0
M  V30 57 H 3.192 -0.31 -3.4003 0
M  V30 58 H -3.6231 -3.4758 -1.6786 0
M  V30 59 H -3.8846 -5.061 -2.3919 0
M  V30 60 H -3.8136 -4.9046 -0.6423 0
M  V30 61 H -2.0513 -6.1185 2.1506 0
M  V30 62 H -0.6832 -6.4438 1.0964 0
M  V30 63 H -2.3374 -6.4713 0.452 0
M  V30 64 H 2.1581 -4.5308 -1.9329 0
M  V30 65 H 1.201 -3.0587 -2.0218 0
M  V30 66 H 0.6494 -4.5367 -2.8357 0
M  V30 67 H -2.8369 1.2428 6.0787 0
M  V30 68 H -1.6919 1.324 4.7337 0
M  V30 69 H -2.2986 3.5348 4.2505 0
M  V30 70 H -3.95 4.0031 3.8094 0
M  V30 71 H -5.3501 0.5306 4.3896 0
M  V30 72 H -5.1485 1.5954 5.7939 0
M  V30 73 H 4.3628 -0.2227 -5.4414 0
M  V30 74 H 4.941 1.2981 -6.1539 0
M  V30 75 H 5.4748 0.1682 -3.0152 0
M  V30 76 H 5.6919 1.8964 -2.6576 0
M  V30 77 H 2.8456 3.1176 -4.4552 0
M  V30 78 H 3.9875 3.3564 -3.1268 0
M  V30 79 H -3.843 -0.8278 5.2386 0
M  V30 80 H -2.1004 -1.0206 5.3442 0
M  V30 81 H -2.8516 -0.7861 3.7703 0
M  V30 82 H -3.3258 4.9054 6.0287 0
M  V30 83 H -2.9452 3.3049 6.6447 0
M  V30 84 H -4.6214 3.7396 6.2555 0
M  V30 85 H -6.2935 2.3908 3.0378 0
M  V30 86 H -6.0816 3.5177 4.3923 0
M  V30 87 H -7.1989 2.1669 4.5269 0
M  V30 88 H 1.9973 0.5002 -5.7931 0
M  V30 89 H 2.5463 2.078 -6.4024 0
M  V30 90 H 2.8994 0.6037 -7.2956 0
M  V30 91 H 7.6781 1.0544 -3.7911 0
M  V30 92 H 6.7413 0.3068 -5.0733 0
M  V30 93 H 6.869 2.0712 -4.9775 0
M  V30 94 H 4.4246 4.8505 -5.0825 0
M  V30 95 H 4.8185 3.4607 -6.0837 0
M  V30 96 H 5.8125 3.8705 -4.6612 0
M  V30 END ATOM
M  V30 BEGIN BOND
M  V30 1 1 1 2
M  V30 2 1 1 3
M  V30 3 2 2 4
M  V30 4 1 2 5
M  V30 5 1 3 6
M  V30 6 1 4 7
M  V30 7 1 4 8
M  V30 8 1 5 9
M  V30 9 2 5 10
M  V30 10 1 6 11
M  V30 11 1 7 12
M  V30 12 2 8 13
M  V30 13 1 9 14
M  V30 14 1 11 15
M  V30 15 1 11 16
M  V30 16 1 11 17
M  V30 17 1 12 18
M  V30 18 1 14 19
M  V30 19 1 15 20
M  V30 20 1 16 21
M  V30 21 1 17 22
M  V30 22 1 18 23
M  V30 23 1 19 24
M  V30 24 1 23 25
M  V30 25 1 23 26
M  V30 26 1 23 27
M  V30 27 1 24 28
M  V30 28 1 24 29
M  V30 29 1 24 30
M  V30 30 1 25 31
M  V30 31 1 26 32
M  V30 32 1 27 33
M  V30 33 1 28 34
M  V30 34 1 29 35
M  V30 35 1 30 36
M  V30 36 1 10 13
M  V30 37 1 3 37
M  V30 38 1 3 38
M  V30 39 1 6 39
M  V30 40 1 6 40
M  V30 41 1 8 41
M  V30 42 1 10 42
M  V30 43 1 12 43
M  V30 44 1 12 44
M  V30 45 1 13 45
M  V30 46 1 14 46
M  V30 47 1 14 47
M  V30 48 1 15 48
M  V30 49 1 15 49
M  V30 50 1 16 50
M  V30 51 1 16 51
M  V30 52 1 17 52
M  V30 53 1 17 53
M  V30 54 1 18 54
M  V30 55 1 18 55
M  V30 56 1 19 56
M  V30 57 1 19 57
M  V30 58 1 20 58
M  V30 59 1 20 59
M  V30 60 1 20 60
M  V30 61 1 21 61
M  V30 62 1 21 62
M  V30 63 1 21 63
M  V30 64 1 22 64
M  V30 65 1 22 65
M  V30 66 1 22 66
M  V30 67 1 25 67
M  V30 68 1 25 68
M  V30 69 1 26 69
M  V30 70 1 26 70
M  V30 71 1 27 71
M  V30 72 1 27 72
M  V30 73 1 28 73
M  V30 74 1 28 74
M  V30 75 1 29 75
M  V30 76 1 29 76
M  V30 77 1 30 77
M  V30 78 1 30 78
M  V30 79 1 31 79
M  V30 80 1 31 80
M  V30 81 1 31 81
M  V30 82 1 32 82
M  V30 83 1 32 83
M  V30 84 1 32 84
M  V30 85 1 33 85
M  V30 86 1 33 86
M  V30 87 1 33 87
M  V30 88 1 34 88
M  V30 89 1 34 89
M  V30 90 1 34 90
M  V30 91 1 35 91
M  V30 92 1 35 92
M  V30 93 1 35 93
M  V30 94 1 36 94
M  V30 95 1 36 95
M  V30 96 1 36 96
M  V30 END BOND
M  V30 END CTAB
M  END
>  <level_0>
5750

>  <index>
5750

>  <NO.>
5751

>  <Name>
gallamine triethiodide

>  <SMILES>
CC[N+](CC)(CC)CCOc1cccc(OCC[N+](CC)(CC)CC)c1OCC[N+](CC)(CC)CC

>  <logBB>


>  <Class>
-1

>  <MW>
510.46

>  <nHBAcc>
3

>  <nHBDon>
0

>  <SLogP>
5.45

>  <TopoPSA>
27.69

>  <MMFF94 Energy>
294.55

$$$$
CCc1nc(C2CC2)c(C(N)=O)n1Cc1ccc2oc(-c3ccccc3NS(=O)(=O)C(F)(F)F)c(Br)c2c1
Actelion Java MolfileCreator 2.0

  0  0  0  0  0  0              0 V3000
M  V30 BEGIN CTAB
M  V30 COUNTS 60 64 0 0 0
M  V30 BEGIN ATOM
M  V30 1 Br 1.1534 2.6377 -1.1534 0
M  V30 2 C 1.9898 1.2786 -0.165 0
M  V30 3 C 3.0045 1.405 0.7588 0
M  V30 4 C 1.6721 -0.0966 -0.2771 0
M  V30 5 O 3.3553 0.1618 1.2115 0
M  V30 6 C 3.7672 2.5065 1.3311 0
M  V30 7 C 2.5413 -0.7384 0.5952 0
M  V30 8 C 0.7638 -0.8826 -1.0142 0
M  V30 9 C 3.1628 3.6276 1.9331 0
M  V30 10 C 5.1705 2.4463 1.2856 0
M  V30 11 C 2.5721 -2.1147 0.7943 0
M  V30 12 C 0.742 -2.2813 -0.8323 0
M  V30 13 N 1.7437 3.7282 2.1159 0
M  V30 14 C 3.9515 4.6486 2.4763 0
M  V30 15 C 5.9523 3.4738 1.8177 0
M  V30 16 C 1.656 -2.8751 0.0577 0
M  V30 17 C -0.2054 -3.1618 -1.62 0
M  V30 18 S 1.1161 3.0614 3.5664 0
M  V30 19 C 5.3425 4.5752 2.4109 0
M  V30 20 N -1.5871 -2.6865 -1.6034 0
M  V30 21 O -0.1334 2.4488 3.1441 0
M  V30 22 O 2.1407 2.2436 4.1891 0
M  V30 23 C 0.7533 4.5621 4.6003 0
M  V30 24 C -2.2586 -2.0733 -2.6558 0
M  V30 25 C -2.4855 -2.871 -0.569 0
M  V30 26 F 1.8834 5.2626 4.9086 0
M  V30 27 F 0.1528 4.2452 5.782 0
M  V30 28 F -0.0766 5.4352 3.9583 0
M  V30 29 C -3.5274 -1.8685 -2.1433 0
M  V30 30 C -1.6793 -1.7248 -3.9282 0
M  V30 31 N -3.6642 -2.3814 -0.887 0
M  V30 32 C -2.1763 -3.5322 0.735 0
M  V30 33 C -4.7066 -1.127 -2.8284 0
M  V30 34 O -0.4874 -1.4971 -4.1104 0
M  V30 35 N -2.5261 -1.6927 -4.9948 0
M  V30 36 C -2.5099 -5.0151 0.7 0
M  V30 37 C -5.4073 -0.0397 -2.0523 0
M  V30 38 C -4.5518 0.317 -3.2308 0
M  V30 39 H 0.0888 -0.4014 -1.7174 0
M  V30 40 H 5.664 1.587 0.8342 0
M  V30 41 H 3.2732 -2.5674 1.4854 0
M  V30 42 H 1.1786 3.3805 1.337 0
M  V30 43 H 3.4912 5.5118 2.9494 0
M  V30 44 H 7.0369 3.408 1.7743 0
M  V30 45 H 1.6641 -3.9562 0.1923 0
M  V30 46 H -0.2256 -4.1774 -1.2074 0
M  V30 47 H 0.1405 -3.2645 -2.6511 0
M  V30 48 H 5.95 5.3727 2.832 0
M  V30 49 H -2.7725 -3.052 1.5206 0
M  V30 50 H -1.13 -3.3932 1.0188 0
M  V30 51 H -5.3446 -1.7655 -3.4292 0
M  V30 52 H -3.5048 -1.9235 -4.9282 0
M  V30 53 H -2.1362 -1.4555 -5.8956 0
M  V30 54 H -2.2967 -5.4743 1.6705 0
M  V30 55 H -1.922 -5.5395 -0.0602 0
M  V30 56 H -3.5695 -5.1768 0.4737 0
M  V30 57 H -5.0389 0.1963 -1.0594 0
M  V30 58 H -6.483 0.0377 -2.1534 0
M  V30 59 H -5.0479 0.6488 -4.1349 0
M  V30 60 H -3.6108 0.8176 -3.0317 0
M  V30 END ATOM
M  V30 BEGIN BOND
M  V30 1 1 1 2
M  V30 2 2 2 3
M  V30 3 1 2 4
M  V30 4 1 3 5
M  V30 5 1 3 6
M  V30 6 2 4 7
M  V30 7 1 4 8
M  V30 8 2 6 9
M  V30 9 1 6 10
M  V30 10 1 7 11
M  V30 11 2 8 12
M  V30 12 1 9 13
M  V30 13 1 9 14
M  V30 14 2 10 15
M  V30 15 2 11 16
M  V30 16 1 12 17
M  V30 17 1 13 18
M  V30 18 2 14 19
M  V30 19 1 17 20
M  V30 20 2 18 21
M  V30 21 2 18 22
M  V30 22 1 18 23
M  V30 23 1 20 24
M  V30 24 1 20 25
M  V30 25 1 23 26
M  V30 26 1 23 27
M  V30 27 1 23 28
M  V30 28 2 24 29
M  V30 29 1 24 30
M  V30 30 2 25 31
M  V30 31 1 25 32
M  V30 32 1 29 33
M  V30 33 2 30 34
M  V30 34 1 30 35
M  V30 35 1 32 36
M  V30 36 1 33 37
M  V30 37 1 33 38
M  V30 38 1 5 7
M  V30 39 1 12 16
M  V30 40 1 15 19
M  V30 41 1 29 31
M  V30 42 1 37 38
M  V30 43 1 8 39
M  V30 44 1 10 40
M  V30 45 1 11 41
M  V30 46 1 13 42
M  V30 47 1 14 43
M  V30 48 1 15 44
M  V30 49 1 16 45
M  V30 50 1 17 46
M  V30 51 1 17 47
M  V30 52 1 19 48
M  V30 53 1 32 49
M  V30 54 1 32 50
M  V30 55 1 33 51
M  V30 56 1 35 52
M  V30 57 1 35 53
M  V30 58 1 36 54
M  V30 59 1 36 55
M  V30 60 1 36 56
M  V30 61 1 37 57
M  V30 62 1 37 58
M  V30 63 1 38 59
M  V30 64 1 38 60
M  V30 END BOND
M  V30 END CTAB
M  END
>  <level_0>
5752

>  <index>
5752

>  <NO.>
5753

>  <Name>
saprisartan

>  <SMILES>
CCc1nc(C2CC2)c(C(N)=O)n1Cc1ccc2oc(-c3ccccc3NS(=O)(=O)C(F)(F)F)c(Br)c2c1

>  <logBB>


>  <Class>
-1

>  <MW>
610.05

>  <nHBAcc>
5

>  <nHBDon>
2

>  <SLogP>
5.91

>  <TopoPSA>
120.22

>  <MMFF94 Energy>
114.52

$$$$
CN(C)CCOc1ccc(/C(=C(/CCCl)c2ccccc2)c2ccccc2)cc1
Actelion Java MolfileCreator 2.0

  0  0  0  0  0  0              0 V3000
M  V30 BEGIN CTAB
M  V30 COUNTS 57 59 0 0 0
M  V30 BEGIN ATOM
M  V30 1 Cl -5.502 3.9048 -2.469 0
M  V30 2 C -4.466 2.8897 -1.4329 0
M  V30 3 C -3.5706 1.9928 -2.2846 0
M  V30 4 C -2.6149 1.1586 -1.4342 0
M  V30 5 C -3.2914 0.0354 -0.7351 0
M  V30 6 C -1.2731 1.3723 -1.331 0
M  V30 7 C -3.816 -1.041 -1.4626 0
M  V30 8 C -3.4269 0.0446 0.6599 0
M  V30 9 C -0.3989 0.4548 -0.5485 0
M  V30 10 C -0.6684 2.5397 -2.0226 0
M  V30 11 C -4.4617 -2.0906 -0.8059 0
M  V30 12 C -4.0718 -1.0061 1.3149 0
M  V30 13 C 0.2303 0.9096 0.6171 0
M  V30 14 C -0.159 -0.8549 -0.9785 0
M  V30 15 C 0.0483 2.3519 -3.2109 0
M  V30 16 C -0.7911 3.8311 -1.4914 0
M  V30 17 C -4.5894 -2.0724 0.5818 0
M  V30 18 C 1.0701 0.0643 1.3527 0
M  V30 19 C 0.6774 -1.6967 -0.2411 0
M  V30 20 C 0.6213 3.4429 -3.8668 0
M  V30 21 C -0.2184 4.9205 -2.15 0
M  V30 22 C 1.2963 -1.2437 0.9257 0
M  V30 23 C 0.4856 4.7258 -3.3376 0
M  V30 24 O 2.0858 -2.17 1.5478 0
M  V30 25 C 2.8082 -1.7433 2.7035 0
M  V30 26 C 3.6561 -2.9119 3.245 0
M  V30 27 N 4.7182 -3.4059 2.3429 0
M  V30 28 C 5.329 -4.6145 2.8992 0
M  V30 29 C 5.745 -2.3977 2.0849 0
M  V30 30 H -5.1298 2.3044 -0.7896 0
M  V30 31 H -3.8773 3.5615 -0.8013 0
M  V30 32 H -4.1926 1.3314 -2.9018 0
M  V30 33 H -3.0247 2.6076 -3.0087 0
M  V30 34 H -3.7153 -1.0757 -2.5447 0
M  V30 35 H -3.0248 0.8672 1.2461 0
M  V30 36 H -4.8606 -2.9246 -1.3774 0
M  V30 37 H -4.1653 -0.9946 2.3976 0
M  V30 38 H 0.0703 1.9276 0.9635 0
M  V30 39 H -0.6227 -1.2308 -1.8865 0
M  V30 40 H 0.1625 1.3553 -3.6306 0
M  V30 41 H -1.3309 3.9941 -0.5623 0
M  V30 42 H -5.0877 -2.8922 1.0927 0
M  V30 43 H 1.5296 0.461 2.2511 0
M  V30 44 H 0.8513 -2.7147 -0.5808 0
M  V30 45 H 1.1745 3.2907 -4.7899 0
M  V30 46 H -0.3197 5.9205 -1.7364 0
M  V30 47 H 0.9321 5.5743 -3.8499 0
M  V30 48 H 2.0961 -1.4565 3.4877 0
M  V30 49 H 3.4431 -0.8814 2.4707 0
M  V30 50 H 4.0898 -2.6149 4.2088 0
M  V30 51 H 2.9639 -3.7416 3.44 0
M  V30 52 H 4.5769 -5.3993 3.0381 0
M  V30 53 H 5.8137 -4.4254 3.864 0
M  V30 54 H 6.0779 -5.0209 2.2102 0
M  V30 55 H 6.2076 -2.0339 3.0094 0
M  V30 56 H 5.3336 -1.5428 1.5396 0
M  V30 57 H 6.5356 -2.8076 1.4459 0
M  V30 END ATOM
M  V30 BEGIN BOND
M  V30 1 1 1 2
M  V30 2 1 2 3
M  V30 3 1 3 4
M  V30 4 1 4 5
M  V30 5 2 4 6
M  V30 6 2 5 7
M  V30 7 1 5 8
M  V30 8 1 6 9
M  V30 9 1 6 10
M  V30 10 1 7 11
M  V30 11 2 8 12
M  V30 12 2 9 13
M  V30 13 1 9 14
M  V30 14 2 10 15
M  V30 15 1 10 16
M  V30 16 2 11 17
M  V30 17 1 13 18
M  V30 18 2 14 19
M  V30 19 1 15 20
M  V30 20 2 16 21
M  V30 21 2 18 22
M  V30 22 2 20 23
M  V30 23 1 22 24
M  V30 24 1 24 25
M  V30 25 1 25 26
M  V30 26 1 26 27
M  V30 27 1 27 28
M  V30 28 1 27 29
M  V30 29 1 12 17
M  V30 30 1 19 22
M  V30 31 1 21 23
M  V30 32 1 2 30
M  V30 33 1 2 31
M  V30 34 1 3 32
M  V30 35 1 3 33
M  V30 36 1 7 34
M  V30 37 1 8 35
M  V30 38 1 11 36
M  V30 39 1 12 37
M  V30 40 1 13 38
M  V30 41 1 14 39
M  V30 42 1 15 40
M  V30 43 1 16 41
M  V30 44 1 17 42
M  V30 45 1 18 43
M  V30 46 1 19 44
M  V30 47 1 20 45
M  V30 48 1 21 46
M  V30 49 1 23 47
M  V30 50 1 25 48
M  V30 51 1 25 49
M  V30 52 1 26 50
M  V30 53 1 26 51
M  V30 54 1 28 52
M  V30 55 1 28 53
M  V30 56 1 28 54
M  V30 57 1 29 55
M  V30 58 1 29 56
M  V30 59 1 29 57
M  V30 END BOND
M  V30 END CTAB
M  END
>  <level_0>
5756

>  <index>
5756

>  <NO.>
5757

>  <Name>
toremifene

>  <SMILES>
CN(C)CCOc1ccc(/C(=C(/CCCl)c2ccccc2)c2ccccc2)cc1

>  <logBB>


>  <Class>
-1

>  <MW>
405.19

>  <nHBAcc>
2

>  <nHBDon>
0

>  <SLogP>
6.22

>  <TopoPSA>
12.47

>  <MMFF94 Energy>
110.83

$$$$
CN(C)c1cc(NC(=O)CNC(C)(C)C)c(O)c2c1CC1CC3C(N(C)C)C(=O)C(C(N)=O)=C(O)C3(O)C(=O)C1=C2O
Actelion Java MolfileCreator 2.0

  0  0  0  0  0  0              0 V3000
M  V30 BEGIN CTAB
M  V30 COUNTS 81 84 0 0 0
M  V30 BEGIN ATOM
M  V30 1 O 1.8312 0.0795 3.4256 0
M  V30 2 C 1.0457 -0.768 2.978 0
M  V30 3 C 0.7205 -0.7367 1.5177 0
M  V30 4 C 0.5354 -1.9388 3.8645 0
M  V30 5 C 1.0968 0.3216 0.7693 0
M  V30 6 C 0.0342 -1.9172 0.8827 0
M  V30 7 O 1.7446 -2.6062 4.2712 0
M  V30 8 C -0.1691 -1.539 5.1475 0
M  V30 9 C -0.3811 -2.9209 3.1257 0
M  V30 10 O 1.7397 1.4397 1.2713 0
M  V30 11 C 0.8247 0.3486 -0.6905 0
M  V30 12 C 0.5486 -2.1533 -0.5459 0
M  V30 13 C 0.1537 -3.1987 1.7149 0
M  V30 14 O -0.078 -0.1949 5.477 0
M  V30 15 C -0.8342 -2.4455 5.9035 0
M  V30 16 C -0.5402 -4.2029 3.9719 0
M  V30 17 C 0.8426 1.5323 -1.4489 0
M  V30 18 C 0.5443 -0.8704 -1.3549 0
M  V30 19 C -0.8888 -3.8746 5.444 0
M  V30 20 C -1.4753 -1.9963 7.1758 0
M  V30 21 N -1.5148 -5.1326 3.3322 0
M  V30 22 O 1.1218 2.7567 -0.8786 0
M  V30 23 C 0.5745 1.527 -2.8248 0
M  V30 24 C 0.3026 -0.8958 -2.7479 0
M  V30 25 O -1.2117 -4.7535 6.2498 0
M  V30 26 O -1.4938 -0.8125 7.5075 0
M  V30 27 N -2.0433 -2.9455 7.9582 0
M  V30 28 C -2.9209 -4.7693 3.5042 0
M  V30 29 C -1.2955 -6.5255 3.7283 0
M  V30 30 N 0.6117 2.7674 -3.4875 0
M  V30 31 C 0.3154 0.3154 -3.4607 0
M  V30 32 N 0.0829 -2.1138 -3.4054 0
M  V30 33 C 0.2654 3.0729 -4.7862 0
M  V30 34 C 1.3013 -2.7897 -3.8393 0
M  V30 35 C -1.0603 -2.1854 -4.3085 0
M  V30 36 O -0.1347 2.2879 -5.6419 0
M  V30 37 C 0.4795 4.5605 -5.1151 0
M  V30 38 N 0.3227 5.3858 -3.8985 0
M  V30 39 C 0.5987 6.8249 -4.0662 0
M  V30 40 C 2.0589 7.0794 -4.474 0
M  V30 41 C 0.3632 7.4681 -2.6856 0
M  V30 42 C -0.3528 7.4817 -5.0795 0
M  V30 43 H -1.0347 -1.6621 0.8172 0
M  V30 44 H 2.3119 -1.9057 4.6582 0
M  V30 45 H -1.3656 -2.4426 3.0116 0
M  V30 46 H 1.9645 1.2545 2.2144 0
M  V30 47 H 1.5737 -2.5457 -0.5297 0
M  V30 48 H -0.0891 -2.9124 -1.0136 0
M  V30 49 H 1.1932 -3.5487 1.7547 0
M  V30 50 H -0.4295 -3.9884 1.2273 0
M  V30 51 H -0.5465 -0.0249 6.3285 0
M  V30 52 H 0.4384 -4.7019 3.9994 0
M  V30 53 H 1.4159 2.5682 0.0381 0
M  V30 54 H -1.9964 -3.9353 7.7179 0
M  V30 55 H -2.478 -2.6766 8.83 0
M  V30 56 H -3.555 -5.4214 2.8924 0
M  V30 57 H -3.1187 -3.7492 3.1622 0
M  V30 58 H -3.2591 -4.8564 4.5422 0
M  V30 59 H -0.2575 -6.8237 3.5442 0
M  V30 60 H -1.9176 -7.1928 3.1208 0
M  V30 61 H -1.5301 -6.7154 4.7799 0
M  V30 62 H 0.8785 3.5638 -2.9054 0
M  V30 63 H 0.1497 0.2912 -4.5321 0
M  V30 64 H 1.7764 -2.2487 -4.6655 0
M  V30 65 H 1.069 -3.8027 -4.1852 0
M  V30 66 H 2.0252 -2.8851 -3.0227 0
M  V30 67 H -1.9556 -1.7533 -3.8472 0
M  V30 68 H -1.2883 -3.2319 -4.5382 0
M  V30 69 H -0.8618 -1.671 -5.2549 0
M  V30 70 H 1.4879 4.6429 -5.531 0
M  V30 71 H -0.2579 4.8398 -5.8739 0
M  V30 72 H -0.6365 5.2677 -3.5625 0
M  V30 73 H 2.2681 6.7345 -5.492 0
M  V30 74 H 2.2918 8.1504 -4.4453 0
M  V30 75 H 2.7557 6.5739 -3.7953 0
M  V30 76 H 1.0223 7.0338 -1.9242 0
M  V30 77 H 0.5585 8.5465 -2.7131 0
M  V30 78 H -0.6715 7.3311 -2.349 0
M  V30 79 H -0.1758 7.1229 -6.099 0
M  V30 80 H -1.4013 7.2834 -4.8287 0
M  V30 81 H -0.2187 8.5697 -5.0933 0
M  V30 END ATOM
M  V30 BEGIN BOND
M  V30 1 2 1 2
M  V30 2 1 2 3
M  V30 3 1 2 4
M  V30 4 2 3 5
M  V30 5 1 3 6
M  V30 6 1 4 7
M  V30 7 1 4 8
M  V30 8 1 4 9
M  V30 9 1 5 10
M  V30 10 1 5 11
M  V30 11 1 6 12
M  V30 12 1 6 13
M  V30 13 1 8 14
M  V30 14 2 8 15
M  V30 15 1 9 16
M  V30 16 2 11 17
M  V30 17 1 11 18
M  V30 18 1 15 19
M  V30 19 1 15 20
M  V30 20 1 16 21
M  V30 21 1 17 22
M  V30 22 1 17 23
M  V30 23 2 18 24
M  V30 24 2 19 25
M  V30 25 2 20 26
M  V30 26 1 20 27
M  V30 27 1 21 28
M  V30 28 1 21 29
M  V30 29 1 23 30
M  V30 30 2 23 31
M  V30 31 1 24 32
M  V30 32 1 30 33
M  V30 33 1 32 34
M  V30 34 1 32 35
M  V30 35 2 33 36
M  V30 36 1 33 37
M  V30 37 1 37 38
M  V30 38 1 38 39
M  V30 39 1 39 40
M  V30 40 1 39 41
M  V30 41 1 39 42
M  V30 42 1 9 13
M  V30 43 1 12 18
M  V30 44 1 16 19
M  V30 45 1 24 31
M  V30 46 1 6 43
M  V30 47 1 7 44
M  V30 48 1 9 45
M  V30 49 1 10 46
M  V30 50 1 12 47
M  V30 51 1 12 48
M  V30 52 1 13 49
M  V30 53 1 13 50
M  V30 54 1 14 51
M  V30 55 1 16 52
M  V30 56 1 22 53
M  V30 57 1 27 54
M  V30 58 1 27 55
M  V30 59 1 28 56
M  V30 60 1 28 57
M  V30 61 1 28 58
M  V30 62 1 29 59
M  V30 63 1 29 60
M  V30 64 1 29 61
M  V30 65 1 30 62
M  V30 66 1 31 63
M  V30 67 1 34 64
M  V30 68 1 34 65
M  V30 69 1 34 66
M  V30 70 1 35 67
M  V30 71 1 35 68
M  V30 72 1 35 69
M  V30 73 1 37 70
M  V30 74 1 37 71
M  V30 75 1 38 72
M  V30 76 1 40 73
M  V30 77 1 40 74
M  V30 78 1 40 75
M  V30 79 1 41 76
M  V30 80 1 41 77
M  V30 81 1 41 78
M  V30 82 1 42 79
M  V30 83 1 42 80
M  V30 84 1 42 81
M  V30 END BOND
M  V30 END CTAB
M  END
>  <level_0>
5758

>  <index>
5758

>  <NO.>
5759

>  <Name>
schembl15367478

>  <SMILES>
CN(C)c1cc(NC(=O)CNC(C)(C)C)c(O)c2c1CC1CC3C(N(C)C)C(=O)C(C(N)=O)=C(O)C3(O)C(=O)C1=C2O

>  <logBB>


>  <Class>
-1

>  <MW>
585.28

>  <nHBAcc>
11

>  <nHBDon>
7

>  <SLogP>
0.36

>  <TopoPSA>
205.76

>  <MMFF94 Energy>
128.57

$$$$
CN(N=O)C(=O)NC1COC(CO)C(O)C1O
Actelion Java MolfileCreator 2.0

  0  0  0  0  0  0              0 V3000
M  V30 BEGIN CTAB
M  V30 COUNTS 32 32 0 0 0
M  V30 BEGIN ATOM
M  V30 1 O 0.7914 6.1066 0.0791 0
M  V30 2 N 0.0664 5.1399 -0.1792 0
M  V30 3 N 0.6963 3.8189 0.1575 0
M  V30 4 C -0.1025 2.702 -0.0541 0
M  V30 5 C 2.055 3.8188 0.6797 0
M  V30 6 O -1.1968 2.7325 -0.616 0
M  V30 7 N 0.4082 1.5088 0.4078 0
M  V30 8 C -0.3079 0.2383 0.2658 0
M  V30 9 C 0.4876 -0.8765 0.9741 0
M  V30 10 C -0.5672 -0.183 -1.1919 0
M  V30 11 O 0.5942 -0.5647 2.3715 0
M  V30 12 C -0.1691 -2.2494 0.7878 0
M  V30 13 O -1.1952 -1.4737 -1.2626 0
M  V30 14 O -1.4208 -2.2445 1.4961 0
M  V30 15 C -0.3699 -2.5177 -0.7059 0
M  V30 16 C -1.0768 -3.8507 -0.9643 0
M  V30 17 O -1.1663 -4.0714 -2.3724 0
M  V30 18 H 2.52 2.8341 0.5949 0
M  V30 19 H 2.0237 4.1118 1.7331 0
M  V30 20 H 2.6744 4.5223 0.115 0
M  V30 21 H 1.0435 1.5467 1.1948 0
M  V30 22 H -1.2701 0.3708 0.7778 0
M  V30 23 H 1.5105 -0.9044 0.5784 0
M  V30 24 H -1.239 0.5197 -1.6919 0
M  V30 25 H 0.3634 -0.2025 -1.7721 0
M  V30 26 H -0.2121 -0.9369 2.7872 0
M  V30 27 H 0.4491 -3.0252 1.2516 0
M  V30 28 H -2.1018 -1.8921 0.8879 0
M  V30 29 H 0.5891 -2.5142 -1.2396 0
M  V30 30 H -2.098 -3.8534 -0.57 0
M  V30 31 H -0.5224 -4.6849 -0.5247 0
M  V30 32 H -1.5839 -3.2684 -2.7406 0
M  V30 END ATOM
M  V30 BEGIN BOND
M  V30 1 2 1 2
M  V30 2 1 2 3
M  V30 3 1 3 4
M  V30 4 1 3 5
M  V30 5 2 4 6
M  V30 6 1 4 7
M  V30 7 1 7 8
M  V30 8 1 8 9
M  V30 9 1 8 10
M  V30 10 1 9 11
M  V30 11 1 9 12
M  V30 12 1 10 13
M  V30 13 1 12 14
M  V30 14 1 12 15
M  V30 15 1 15 16
M  V30 16 1 16 17
M  V30 17 1 13 15
M  V30 18 1 5 18
M  V30 19 1 5 19
M  V30 20 1 5 20
M  V30 21 1 7 21
M  V30 22 1 8 22
M  V30 23 1 9 23
M  V30 24 1 10 24
M  V30 25 1 10 25
M  V30 26 1 11 26
M  V30 27 1 12 27
M  V30 28 1 14 28
M  V30 29 1 15 29
M  V30 30 1 16 30
M  V30 31 1 16 31
M  V30 32 1 17 32
M  V30 END BOND
M  V30 END CTAB
M  END
>  <level_0>
5761

>  <index>
5761

>  <NO.>
5762

>  <Name>
streptozocin

>  <SMILES>
CN(N=O)C(=O)NC1COC(CO)C(O)C1O

>  <logBB>


>  <Class>
-1

>  <MW>
249.1

>  <nHBAcc>
7

>  <nHBDon>
4

>  <SLogP>
-2.21

>  <TopoPSA>
131.69

>  <MMFF94 Energy>
49.431

$$$$
CNC(=O)CN(CCN(CCN(CC(=O)O)CC(=O)NC)CC(=O)O)CC(=O)O
Actelion Java MolfileCreator 2.0

  0  0  0  0  0  0              0 V3000
M  V30 BEGIN CTAB
M  V30 COUNTS 58 57 0 0 0
M  V30 BEGIN ATOM
M  V30 1 O 0.3123 -0.7809 -3.4397 0
M  V30 2 C 0.7515 -1.9143 -3.3293 0
M  V30 3 O 1.6223 -2.3823 -4.2541 0
M  V30 4 C 0.4382 -2.974 -2.2744 0
M  V30 5 N -0.4347 -2.4772 -1.1823 0
M  V30 6 C -0.3575 -3.3699 -0.0119 0
M  V30 7 C -1.8183 -2.251 -1.6351 0
M  V30 8 C 0.789 -2.907 0.9027 0
M  V30 9 C -2.7678 -1.5334 -0.6218 0
M  V30 10 O 1.9766 -3.024 0.5942 0
M  V30 11 N 0.3738 -2.3159 2.0748 0
M  V30 12 N -2.1557 -0.6242 0.3768 0
M  V30 13 C 1.2879 -1.8724 3.0974 0
M  V30 14 C -3.21 -0.1097 1.2859 0
M  V30 15 C -1.4045 0.4733 -0.2849 0
M  V30 16 C -2.6785 0.1521 2.6851 0
M  V30 17 C -0.5236 1.3172 0.6746 0
M  V30 18 O -2.8744 1.1586 3.3486 0
M  V30 19 O -1.976 -0.8769 3.2091 0
M  V30 20 N 0.4586 2.2014 0.0061 0
M  V30 21 C 1.5122 1.4458 -0.7444 0
M  V30 22 C 1.0706 3.1277 0.9996 0
M  V30 23 C 2.2004 0.3254 0.0348 0
M  V30 24 C 1.7177 4.338 0.3093 0
M  V30 25 O 2.4765 0.3191 1.2246 0
M  V30 26 O 2.5046 -0.7284 -0.7531 0
M  V30 27 O 2.684 4.9317 0.7787 0
M  V30 28 N 1.0726 4.7267 -0.8451 0
M  V30 29 C 1.5051 5.8456 -1.6349 0
M  V30 30 H 1.7698 -1.6101 -4.839 0
M  V30 31 H 1.4087 -3.2809 -1.8693 0
M  V30 32 H -0.0198 -3.838 -2.7702 0
M  V30 33 H -0.1842 -4.4151 -0.296 0
M  V30 34 H -1.2825 -3.3688 0.5746 0
M  V30 35 H -2.2805 -3.2002 -1.9368 0
M  V30 36 H -1.8089 -1.6201 -2.5306 0
M  V30 37 H -3.5429 -1.0031 -1.1914 0
M  V30 38 H -3.2808 -2.3323 -0.0696 0
M  V30 39 H -0.6058 -2.05 2.165 0
M  V30 40 H 1.1172 -0.8078 3.2737 0
M  V30 41 H 2.3295 -2.0431 2.8169 0
M  V30 42 H 1.06 -2.4222 4.0141 0
M  V30 43 H -3.6715 0.8034 0.8927 0
M  V30 44 H -4.0155 -0.8429 1.4216 0
M  V30 45 H -2.0907 1.136 -0.8289 0
M  V30 46 H -0.7467 0.0411 -1.0373 0
M  V30 47 H -1.2083 1.9553 1.2465 0
M  V30 48 H -0.0295 0.6643 1.4017 0
M  V30 49 H -1.7266 -0.5456 4.0985 0
M  V30 50 H 1.0503 1.0211 -1.6401 0
M  V30 51 H 2.2934 2.1216 -1.1102 0
M  V30 52 H 1.8099 2.6383 1.6392 0
M  V30 53 H 0.2931 3.5514 1.648 0
M  V30 54 H 2.7033 -1.4747 -0.1316 0
M  V30 55 H 0.3354 4.1081 -1.1723 0
M  V30 56 H 2.3458 5.5287 -2.2573 0
M  V30 57 H 1.8214 6.6679 -0.9875 0
M  V30 58 H 0.6757 6.1667 -2.269 0
M  V30 END ATOM
M  V30 BEGIN BOND
M  V30 1 2 1 2
M  V30 2 1 2 3
M  V30 3 1 2 4
M  V30 4 1 4 5
M  V30 5 1 5 6
M  V30 6 1 5 7
M  V30 7 1 6 8
M  V30 8 1 7 9
M  V30 9 2 8 10
M  V30 10 1 8 11
M  V30 11 1 9 12
M  V30 12 1 11 13
M  V30 13 1 12 14
M  V30 14 1 12 15
M  V30 15 1 14 16
M  V30 16 1 15 17
M  V30 17 2 16 18
M  V30 18 1 16 19
M  V30 19 1 17 20
M  V30 20 1 20 21
M  V30 21 1 20 22
M  V30 22 1 21 23
M  V30 23 1 22 24
M  V30 24 2 23 25
M  V30 25 1 23 26
M  V30 26 2 24 27
M  V30 27 1 24 28
M  V30 28 1 28 29
M  V30 29 1 3 30
M  V30 30 1 4 31
M  V30 31 1 4 32
M  V30 32 1 6 33
M  V30 33 1 6 34
M  V30 34 1 7 35
M  V30 35 1 7 36
M  V30 36 1 9 37
M  V30 37 1 9 38
M  V30 38 1 11 39
M  V30 39 1 13 40
M  V30 40 1 13 41
M  V30 41 1 13 42
M  V30 42 1 14 43
M  V30 43 1 14 44
M  V30 44 1 15 45
M  V30 45 1 15 46
M  V30 46 1 17 47
M  V30 47 1 17 48
M  V30 48 1 19 49
M  V30 49 1 21 50
M  V30 50 1 21 51
M  V30 51 1 22 52
M  V30 52 1 22 53
M  V30 53 1 26 54
M  V30 54 1 28 55
M  V30 55 1 29 56
M  V30 56 1 29 57
M  V30 57 1 29 58
M  V30 END BOND
M  V30 END CTAB
M  END
>  <level_0>
5768

>  <index>
5768

>  <NO.>
5769

>  <Name>
dtpa-bma

>  <SMILES>
CNC(=O)CN(CCN(CCN(CC(=O)O)CC(=O)NC)CC(=O)O)CC(=O)O

>  <logBB>


>  <Class>
-1

>  <MW>
419.2

>  <nHBAcc>
8

>  <nHBDon>
5

>  <SLogP>
-3.36

>  <TopoPSA>
179.82

>  <MMFF94 Energy>
142

$$$$
CNC(=O)c1cc(Oc2ccc(NC(=O)Nc3ccc(Cl)c(C(F)(F)F)c3)c(F)c2)ccn1
Actelion Java MolfileCreator 2.0

  0  0  0  0  0  0              0 V3000
M  V30 BEGIN CTAB
M  V30 COUNTS 48 50 0 0 0
M  V30 BEGIN ATOM
M  V30 1 Cl -1.7047 8.3824 4.7137 0
M  V30 2 C -1.3991 6.7995 4.0977 0
M  V30 3 C -0.1561 6.4306 3.5726 0
M  V30 4 C -2.4481 5.8772 4.1444 0
M  V30 5 C 0.0086 5.1163 3.0877 0
M  V30 6 C 0.9938 7.3996 3.5211 0
M  V30 7 C -2.2686 4.5794 3.6618 0
M  V30 8 C -1.0419 4.1943 3.1179 0
M  V30 9 F 2.1326 6.8622 2.996 0
M  V30 10 F 0.731 8.4992 2.7622 0
M  V30 11 F 1.3532 7.8602 4.752 0
M  V30 12 N -0.914 2.8682 2.6638 0
M  V30 13 C -0.0034 2.4079 1.7247 0
M  V30 14 O 0.7627 3.1232 1.0922 0
M  V30 15 N -0.086 1.0329 1.6027 0
M  V30 16 C 0.6111 0.2157 0.6874 0
M  V30 17 C 0.6331 -1.1618 0.9447 0
M  V30 18 C 1.2467 0.6921 -0.4596 0
M  V30 19 F 0.0204 -1.6357 2.0422 0
M  V30 20 C 1.2766 -2.0562 0.0959 0
M  V30 21 C 1.8975 -0.198 -1.3219 0
M  V30 22 C 1.8951 -1.5678 -1.053 0
M  V30 23 O 2.5803 -2.3807 -1.9256 0
M  V30 24 C 1.9316 -3.5025 -2.3907 0
M  V30 25 C 0.6073 -3.4943 -2.816 0
M  V30 26 C 2.69 -4.6648 -2.4926 0
M  V30 27 C 0.0834 -4.685 -3.2944 0
M  V30 28 C 2.0788 -5.8036 -2.987 0
M  V30 29 N 0.7902 -5.8494 -3.386 0
M  V30 30 C -1.3435 -4.7385 -3.7508 0
M  V30 31 O -2.0705 -3.7531 -3.702 0
M  V30 32 N -1.7432 -5.9717 -4.2179 0
M  V30 33 C -3.0679 -6.2158 -4.7171 0
M  V30 34 H -3.4136 6.1645 4.5557 0
M  V30 35 H 0.9809 4.8241 2.6927 0
M  V30 36 H -3.1039 3.885 3.7068 0
M  V30 37 H -1.6438 2.2247 2.9311 0
M  V30 38 H -0.586 0.5324 2.3254 0
M  V30 39 H 1.2491 1.7487 -0.7128 0
M  V30 40 H 1.2887 -3.1116 0.3433 0
M  V30 41 H 2.3987 0.1828 -2.2088 0
M  V30 42 H -5.0E-4 -2.5968 -2.7883 0
M  V30 43 H 3.7315 -4.6806 -2.1907 0
M  V30 44 H 2.6289 -6.7364 -3.0792 0
M  V30 45 H -1.0381 -6.7045 -4.2249 0
M  V30 46 H -3.1452 -5.7981 -5.7242 0
M  V30 47 H -3.8078 -5.7396 -4.0682 0
M  V30 48 H -3.2369 -7.2944 -4.7489 0
M  V30 END ATOM
M  V30 BEGIN BOND
M  V30 1 1 1 2
M  V30 2 2 2 3
M  V30 3 1 2 4
M  V30 4 1 3 5
M  V30 5 1 3 6
M  V30 6 2 4 7
M  V30 7 2 5 8
M  V30 8 1 6 9
M  V30 9 1 6 10
M  V30 10 1 6 11
M  V30 11 1 8 12
M  V30 12 1 12 13
M  V30 13 2 13 14
M  V30 14 1 13 15
M  V30 15 1 15 16
M  V30 16 2 16 17
M  V30 17 1 16 18
M  V30 18 1 17 19
M  V30 19 1 17 20
M  V30 20 2 18 21
M  V30 21 2 20 22
M  V30 22 1 22 23
M  V30 23 1 23 24
M  V30 24 2 24 25
M  V30 25 1 24 26
M  V30 26 1 25 27
M  V30 27 2 26 28
M  V30 28 2 27 29
M  V30 29 1 27 30
M  V30 30 2 30 31
M  V30 31 1 30 32
M  V30 32 1 32 33
M  V30 33 1 7 8
M  V30 34 1 21 22
M  V30 35 1 28 29
M  V30 36 1 4 34
M  V30 37 1 5 35
M  V30 38 1 7 36
M  V30 39 1 12 37
M  V30 40 1 15 38
M  V30 41 1 18 39
M  V30 42 1 20 40
M  V30 43 1 21 41
M  V30 44 1 25 42
M  V30 45 1 26 43
M  V30 46 1 28 44
M  V30 47 1 32 45
M  V30 48 1 33 46
M  V30 49 1 33 47
M  V30 50 1 33 48
M  V30 END BOND
M  V30 END CTAB
M  END
>  <level_0>
5769

>  <index>
5769

>  <NO.>
5770

>  <Name>
regorafenib

>  <SMILES>
CNC(=O)c1cc(Oc2ccc(NC(=O)Nc3ccc(Cl)c(C(F)(F)F)c3)c(F)c2)ccn1

>  <logBB>


>  <Class>
-1

>  <MW>
482.08

>  <nHBAcc>
4

>  <nHBDon>
3

>  <SLogP>
5.69

>  <TopoPSA>
92.35

>  <MMFF94 Energy>
-1.2427

$$$$
CNC(=O)c1cnn(-c2nc(N)c3ncn(C4OC(CO)C(O)C4O)c3n2)c1
Actelion Java MolfileCreator 2.0

  0  0  0  0  0  0              0 V3000
M  V30 BEGIN CTAB
M  V30 COUNTS 46 49 0 0 0
M  V30 BEGIN ATOM
M  V30 1 O 4.7212 -0.2396 -3.8396 0
M  V30 2 C 4.4135 -0.8577 -2.8262 0
M  V30 3 N 5.2524 -1.7695 -2.2246 0
M  V30 4 C 3.1267 -0.6715 -2.179 0
M  V30 5 C 6.5559 -2.0461 -2.7683 0
M  V30 6 C 2.0924 0.1929 -2.6015 0
M  V30 7 C 2.6126 -1.2615 -1.0407 0
M  V30 8 N 1.0172 0.1592 -1.8114 0
M  V30 9 N 1.3445 -0.7456 -0.8415 0
M  V30 10 C 0.4495 -1.0742 0.2351 0
M  V30 11 N 0.8961 -1.9604 1.1677 0
M  V30 12 N -0.7536 -0.4632 0.2257 0
M  V30 13 C 0.0832 -2.2893 2.1984 0
M  V30 14 C -1.5232 -0.8127 1.2629 0
M  V30 15 N 0.5427 -3.1908 3.1309 0
M  V30 16 C -1.1918 -1.7031 2.2687 0
M  V30 17 N -2.7911 -0.3884 1.5597 0
M  V30 18 N -2.2323 -1.8443 3.1625 0
M  V30 19 C -3.1783 -1.055 2.6991 0
M  V30 20 C -3.6562 0.5029 0.8003 0
M  V30 21 O -2.9781 1.0238 -0.3601 0
M  V30 22 C -4.1669 1.7283 1.568 0
M  V30 23 C -2.6956 2.428 -0.1548 0
M  V30 24 O -5.4332 2.1691 1.0501 0
M  V30 25 C -3.092 2.7649 1.2865 0
M  V30 26 C -1.2434 2.7539 -0.5007 0
M  V30 27 O -2.0316 2.5799 2.2227 0
M  V30 28 O -0.9816 2.4874 -1.8749 0
M  V30 29 H 4.9557 -2.2588 -1.3936 0
M  V30 30 H 7.1404 -1.1225 -2.7967 0
M  V30 31 H 6.448 -2.4398 -3.7827 0
M  V30 32 H 7.0527 -2.7828 -2.133 0
M  V30 33 H 2.0901 0.8491 -3.4648 0
M  V30 34 H 3.0087 -1.9908 -0.3491 0
M  V30 35 H 1.4653 -3.5779 3.0248 0
M  V30 36 H -0.0605 -3.4419 3.9022 0
M  V30 37 H -4.1579 -0.9287 3.1446 0
M  V30 38 H -4.4844 -0.118 0.439 0
M  V30 39 H -4.3032 1.5398 2.6371 0
M  V30 40 H -3.3585 2.9528 -0.8539 0
M  V30 41 H -5.3973 2.1514 0.0751 0
M  V30 42 H -3.4564 3.7937 1.3737 0
M  V30 43 H -1.048 3.8174 -0.3302 0
M  V30 44 H -0.5326 2.1792 0.0995 0
M  V30 45 H -1.4429 3.3546 2.1749 0
M  V30 46 H -0.6749 1.5534 -1.912 0
M  V30 END ATOM
M  V30 BEGIN BOND
M  V30 1 2 1 2
M  V30 2 1 2 3
M  V30 3 1 2 4
M  V30 4 1 3 5
M  V30 5 1 4 6
M  V30 6 2 4 7
M  V30 7 2 6 8
M  V30 8 1 7 9
M  V30 9 1 9 10
M  V30 10 2 10 11
M  V30 11 1 10 12
M  V30 12 1 11 13
M  V30 13 2 12 14
M  V30 14 1 13 15
M  V30 15 2 13 16
M  V30 16 1 14 17
M  V30 17 1 16 18
M  V30 18 1 17 19
M  V30 19 1 17 20
M  V30 20 1 20 21
M  V30 21 1 20 22
M  V30 22 1 21 23
M  V30 23 1 22 24
M  V30 24 1 22 25
M  V30 25 1 23 26
M  V30 26 1 25 27
M  V30 27 1 26 28
M  V30 28 1 8 9
M  V30 29 1 14 16
M  V30 30 2 18 19
M  V30 31 1 23 25
M  V30 32 1 3 29
M  V30 33 1 5 30
M  V30 34 1 5 31
M  V30 35 1 5 32
M  V30 36 1 6 33
M  V30 37 1 7 34
M  V30 38 1 15 35
M  V30 39 1 15 36
M  V30 40 1 19 37
M  V30 41 1 20 38
M  V30 42 1 22 39
M  V30 43 1 23 40
M  V30 44 1 24 41
M  V30 45 1 25 42
M  V30 46 1 26 43
M  V30 47 1 26 44
M  V30 48 1 27 45
M  V30 49 1 28 46
M  V30 END BOND
M  V30 END CTAB
M  END
>  <level_0>
5771

>  <index>
5771

>  <NO.>
5772

>  <Name>
regadenoson

>  <SMILES>
CNC(=O)c1cnn(-c2nc(N)c3ncn(C4OC(CO)C(O)C4O)c3n2)c1

>  <logBB>


>  <Class>
-1

>  <MW>
390.14

>  <nHBAcc>
10

>  <nHBDon>
5

>  <SLogP>
-2.43

>  <TopoPSA>
186.46

>  <MMFF94 Energy>
127.15

$$$$
CNC1C(O)C(NC)C2OC3(O)C(=O)CC(C)OC3OC2C1O
Actelion Java MolfileCreator 2.0

  0  0  0  0  0  0              0 V3000
M  V30 BEGIN CTAB
M  V30 COUNTS 47 49 0 0 0
M  V30 BEGIN ATOM
M  V30 1 O -3.6085 -0.7209 3.2071 0
M  V30 2 C -2.9259 -0.0951 2.3947 0
M  V30 3 C -1.46 -0.4285 2.0512 0
M  V30 4 C -3.4931 1.1056 1.6832 0
M  V30 5 O -1.3917 -0.8151 0.6709 0
M  V30 6 O -0.9558 -1.4796 2.8655 0
M  V30 7 C -0.6821 0.9105 2.292 0
M  V30 8 C -2.6117 2.2875 2.0549 0
M  V30 9 C -0.0163 -0.9295 0.2284 0
M  V30 10 O 0.6832 0.7644 1.84 0
M  V30 11 O -1.2661 2.0418 1.6342 0
M  V30 12 C -3.0852 3.5573 1.3617 0
M  V30 13 C 0.6986 0.4132 0.4363 0
M  V30 14 C 0.0065 -1.3614 -1.2591 0
M  V30 15 C 2.1526 0.3538 -0.0358 0
M  V30 16 N -0.6761 -2.6819 -1.3304 0
M  V30 17 C 1.4622 -1.3673 -1.7993 0
M  V30 18 O 2.8904 -0.5938 0.7479 0
M  V30 19 C 2.2112 -0.0326 -1.5246 0
M  V30 20 C -0.9623 -3.1116 -2.6918 0
M  V30 21 O 1.4741 -1.5433 -3.2286 0
M  V30 22 N 3.6 -0.2017 -2.034 0
M  V30 23 C 4.2948 1.0689 -2.1964 0
M  V30 24 H -3.4834 0.9032 0.6069 0
M  V30 25 H -4.5289 1.2654 1.9996 0
M  V30 26 H -0.0577 -1.2392 3.1448 0
M  V30 27 H -0.6222 1.1237 3.3665 0
M  V30 28 H -2.6151 2.4536 3.14 0
M  V30 29 H 0.4646 -1.7089 0.8355 0
M  V30 30 H -3.0432 3.4496 0.2721 0
M  V30 31 H -4.1098 3.8107 1.6509 0
M  V30 32 H -2.4319 4.3982 1.6189 0
M  V30 33 H 0.1832 1.2047 -0.1236 0
M  V30 34 H -0.597 -0.6486 -1.8379 0
M  V30 35 H 2.6242 1.3289 0.131 0
M  V30 36 H -1.5573 -2.6008 -0.8156 0
M  V30 37 H 2.0103 -2.2109 -1.359 0
M  V30 38 H 2.8121 -0.2911 1.6733 0
M  V30 39 H 1.7211 0.748 -2.1232 0
M  V30 40 H -1.46 -2.3299 -3.2744 0
M  V30 41 H -1.6343 -3.9756 -2.6584 0
M  V30 42 H -0.0592 -3.4431 -3.2101 0
M  V30 43 H 2.4059 -1.3717 -3.4791 0
M  V30 44 H 4.1058 -0.7633 -1.3388 0
M  V30 45 H 3.7623 1.7251 -2.8921 0
M  V30 46 H 4.4313 1.5895 -1.2442 0
M  V30 47 H 5.2883 0.8839 -2.6167 0
M  V30 END ATOM
M  V30 BEGIN BOND
M  V30 1 2 1 2
M  V30 2 1 2 3
M  V30 3 1 2 4
M  V30 4 1 3 5
M  V30 5 1 3 6
M  V30 6 1 3 7
M  V30 7 1 4 8
M  V30 8 1 5 9
M  V30 9 1 7 10
M  V30 10 1 7 11
M  V30 11 1 8 12
M  V30 12 1 9 13
M  V30 13 1 9 14
M  V30 14 1 13 15
M  V30 15 1 14 16
M  V30 16 1 14 17
M  V30 17 1 15 18
M  V30 18 1 15 19
M  V30 19 1 16 20
M  V30 20 1 17 21
M  V30 21 1 19 22
M  V30 22 1 22 23
M  V30 23 1 8 11
M  V30 24 1 10 13
M  V30 25 1 17 19
M  V30 26 1 4 24
M  V30 27 1 4 25
M  V30 28 1 6 26
M  V30 29 1 7 27
M  V30 30 1 8 28
M  V30 31 1 9 29
M  V30 32 1 12 30
M  V30 33 1 12 31
M  V30 34 1 12 32
M  V30 35 1 13 33
M  V30 36 1 14 34
M  V30 37 1 15 35
M  V30 38 1 16 36
M  V30 39 1 17 37
M  V30 40 1 18 38
M  V30 41 1 19 39
M  V30 42 1 20 40
M  V30 43 1 20 41
M  V30 44 1 20 42
M  V30 45 1 21 43
M  V30 46 1 22 44
M  V30 47 1 23 45
M  V30 48 1 23 46
M  V30 49 1 23 47
M  V30 END BOND
M  V30 END CTAB
M  END
>  <level_0>
5774

>  <index>
5774

>  <NO.>
5775

>  <Name>
spectinomicina

>  <SMILES>
CNC1C(O)C(NC)C2OC3(O)C(=O)CC(C)OC3OC2C1O

>  <logBB>


>  <Class>
-1

>  <MW>
332.16

>  <nHBAcc>
9

>  <nHBDon>
5

>  <SLogP>
-2.93

>  <TopoPSA>
129.51

>  <MMFF94 Energy>
197.98

$$$$
COC(=O)CCC(=O)CN
Actelion Java MolfileCreator 2.0

  0  0  0  0  0  0              0 V3000
M  V30 BEGIN CTAB
M  V30 COUNTS 21 20 0 0 0
M  V30 BEGIN ATOM
M  V30 1 O -1.0802 0.0771 -2.3159 0
M  V30 2 C -1.0359 -0.8681 -1.5409 0
M  V30 3 O -1.5227 -2.1144 -1.7938 0
M  V30 4 C -0.4407 -0.8257 -0.1578 0
M  V30 5 C -2.113 -2.2586 -3.0862 0
M  V30 6 C 0.1777 0.5368 0.13 0
M  V30 7 C 0.7844 0.6028 1.5159 0
M  V30 8 O 0.6865 -0.3267 2.3206 0
M  V30 9 C 1.4657 1.9193 1.8898 0
M  V30 10 N 2.5949 1.66 2.7861 0
M  V30 11 H 0.3249 -1.6062 -0.0842 0
M  V30 12 H -1.2348 -1.041 0.5659 0
M  V30 13 H -2.4656 -3.2889 -3.1846 0
M  V30 14 H -2.9707 -1.5871 -3.1927 0
M  V30 15 H -1.3721 -2.0695 -3.8692 0
M  V30 16 H -0.5815 1.3238 0.0556 0
M  V30 17 H 0.9675 0.7511 -0.5989 0
M  V30 18 H 1.8327 2.4173 0.9884 0
M  V30 19 H 0.7216 2.5575 2.376 0
M  V30 20 H 2.2969 0.9682 3.4806 0
M  V30 21 H 2.8249 2.5066 3.3026 0
M  V30 END ATOM
M  V30 BEGIN BOND
M  V30 1 2 1 2
M  V30 2 1 2 3
M  V30 3 1 2 4
M  V30 4 1 3 5
M  V30 5 1 4 6
M  V30 6 1 6 7
M  V30 7 2 7 8
M  V30 8 1 7 9
M  V30 9 1 9 10
M  V30 10 1 4 11
M  V30 11 1 4 12
M  V30 12 1 5 13
M  V30 13 1 5 14
M  V30 14 1 5 15
M  V30 15 1 6 16
M  V30 16 1 6 17
M  V30 17 1 9 18
M  V30 18 1 9 19
M  V30 19 1 10 20
M  V30 20 1 10 21
M  V30 END BOND
M  V30 END CTAB
M  END
>  <level_0>
5787

>  <index>
5787

>  <NO.>
5788

>  <Name>
methyl aminolevulinate

>  <SMILES>
COC(=O)CCC(=O)CN

>  <logBB>


>  <Class>
-1

>  <MW>
145.07

>  <nHBAcc>
4

>  <nHBDon>
1

>  <SLogP>
-0.53

>  <TopoPSA>
69.39

>  <MMFF94 Energy>
13.262

$$$$
COC(=O)N[C@H](C(=O)N1CCC[C@H]1c1nc2cc(F)c([C@H]3CC[C@H](c4cc5[nH]c([C@@H]6CCCN6C(=O)[C@@H](NC(=O)OC)[C@@H](C)OC)nc5cc4F)N3c3cc(F)c(N4CCC(c5ccc(F)cc5)CC4)c(F)c3)cc2[nH]1)[C@@H](C)OC
Actelion Java MolfileCreator 2.0

  0  0  0  0  0  0              0 V3000
M  V30 BEGIN CTAB
M  V30 COUNTS 145 154 0 0 0
M  V30 BEGIN ATOM
M  V30 1 F 0.4814 2.3284 -1.4447 0
M  V30 2 C 0.0264 1.6421 -0.3815 0
M  V30 3 C 0.1036 0.241 -0.3705 0
M  V30 4 C -0.5298 2.3733 0.6735 0
M  V30 5 N 0.6804 -0.4542 -1.443 0
M  V30 6 C -0.4197 -0.3812 0.7715 0
M  V30 7 C -1.0273 1.741 1.8159 0
M  V30 8 C 0.1555 -1.7719 -1.7908 0
M  V30 9 C 2.1173 -0.2412 -1.6279 0
M  V30 10 F -0.386 -1.7192 0.8935 0
M  V30 11 C -0.9615 0.3453 1.8383 0
M  V30 12 N -1.5472 2.4558 2.8687 0
M  V30 13 C 0.4722 -2.0766 -3.2503 0
M  V30 14 C 2.5521 -0.6145 -3.0434 0
M  V30 15 C -2.4087 3.6401 2.7221 0 CFG=1
M  V30 16 C -1.3083 2.1461 4.2874 0 CFG=1
M  V30 17 C 1.9603 -1.9225 -3.5957 0
M  V30 18 C -3.5502 3.4237 1.7465 0
M  V30 19 C -2.9019 3.936 4.1504 0
M  V30 20 C 0.1354 1.8027 4.6014 0
M  V30 21 C -1.7848 3.4053 5.0318 0
M  V30 22 C 2.7711 -3.1763 -3.2897 0
M  V30 23 C -4.5035 2.4088 1.9384 0
M  V30 24 C -3.6316 4.2345 0.5977 0
M  V30 25 C 1.1861 2.6895 4.3113 0
M  V30 26 C 0.4315 0.5465 5.1668 0
M  V30 27 C 3.1416 -4.0186 -4.3563 0
M  V30 28 C 3.1523 -3.548 -1.9925 0
M  V30 29 F -4.433 1.6193 3.0222 0
M  V30 30 C -5.5375 2.1658 1.0312 0
M  V30 31 C -4.6608 3.9608 -0.3057 0
M  V30 32 F 0.9203 3.8905 3.7732 0
M  V30 33 C 2.5253 2.372 4.5495 0
M  V30 34 C 1.7777 0.2443 5.3831 0
M  V30 35 C 3.8762 -5.1847 -4.1322 0
M  V30 36 C 3.8867 -4.7161 -1.7674 0
M  V30 37 C -5.6004 2.955 -0.1198 0
M  V30 38 N -4.9884 4.5068 -1.5172 0
M  V30 39 C 2.8179 1.1145 5.0838 0
M  V30 40 N 2.4028 -0.8739 5.8648 0
M  V30 41 C 4.243 -5.5225 -2.8383 0
M  V30 42 N -6.4665 2.8867 -1.1839 0
M  V30 43 C -6.0488 3.8004 -2.0396 0
M  V30 44 N 4.0346 0.5407 5.3611 0
M  V30 45 C 3.7635 -0.6757 5.7949 0
M  V30 46 F 4.9452 -6.6419 -2.6206 0
M  V30 47 C -6.5164 4.0569 -3.4452 0 CFG=1
M  V30 48 C 4.7165 -1.7903 6.1249 0 CFG=1
M  V30 49 N -5.5776 3.4068 -4.3578 0
M  V30 50 C -7.8622 3.4088 -3.7698 0
M  V30 51 N 4.7212 -2.7361 5.0097 0
M  V30 52 C 6.1722 -1.335 6.2319 0
M  V30 53 C -4.3292 3.9365 -4.6022 0
M  V30 54 C -6.1748 2.2361 -4.9845 0
M  V30 55 C -7.4815 2.0088 -4.2394 0
M  V30 56 C 3.6856 -3.623 4.812 0
M  V30 57 C 5.9649 -2.6559 4.256 0
M  V30 58 C 6.6804 -1.4273 4.7972 0
M  V30 59 O -3.9778 4.9996 -4.0731 0
M  V30 60 C -3.3604 3.1365 -5.4951 0 CFG=1
M  V30 61 O 2.7099 -3.6399 5.5743 0
M  V30 62 C 3.7488 -4.5583 3.5892 0 CFG=1
M  V30 63 N -2.847 4.0442 -6.5162 0
M  V30 64 C -2.2181 2.5915 -4.6008 0 CFG=2
M  V30 65 N 3.5809 -5.925 4.0737 0
M  V30 66 C 2.6125 -4.1653 2.6141 0 CFG=2
M  V30 67 C -3.5944 4.4332 -7.579 0
M  V30 68 O -1.1839 2.0781 -5.4636 0
M  V30 69 C -2.7162 1.4764 -3.6781 0
M  V30 70 C 4.5878 -6.6101 4.671 0
M  V30 71 O 2.5792 -5.1368 1.5511 0
M  V30 72 C 2.8487 -2.7817 2.006 0
M  V30 73 O -4.76 4.118 -7.7683 0
M  V30 74 O -2.8466 5.2175 -8.3906 0
M  V30 75 C 0.0814 1.9836 -4.8196 0
M  V30 76 O 5.7033 -6.1639 4.8933 0
M  V30 77 O 4.1589 -7.8563 4.9803 0
M  V30 78 C 1.2875 -5.286 0.9725 0
M  V30 79 C -3.5436 5.6864 -9.5444 0
M  V30 80 C 5.1469 -8.6668 5.6161 0
M  V30 81 H -0.5308 3.4554 0.5938 0
M  V30 82 H 0.5741 -2.5424 -1.1363 0
M  V30 83 H -0.9353 -1.7962 -1.6735 0
M  V30 84 H 2.6728 -0.8219 -0.8844 0
M  V30 85 H 2.3967 0.8063 -1.4617 0
M  V30 86 H -1.3539 -0.2114 2.6832 0
M  V30 87 H -0.0957 -1.3722 -3.8735 0
M  V30 88 H 0.11 -3.0793 -3.5072 0
M  V30 89 H 3.6472 -0.6232 -3.1039 0
M  V30 90 H 2.2227 0.197 -3.7054 0
M  V30 91 H -1.784 4.4829 2.3976 0
M  V30 92 H -1.9651 1.3114 4.5671 0
M  V30 93 H 2.002 -1.8085 -4.6894 0
M  V30 94 H -3.0815 5.0051 4.3055 0
M  V30 95 H -3.8332 3.4161 4.3989 0
M  V30 96 H -1.0039 4.1686 5.1192 0
M  V30 97 H -2.127 3.176 6.0463 0
M  V30 98 H -2.9076 5.019 0.4005 0
M  V30 99 H -0.348 -0.1724 5.3986 0
M  V30 100 H 2.8587 -3.7717 -5.378 0
M  V30 101 H 2.8811 -2.9503 -1.1301 0
M  V30 102 H -6.25 1.3689 1.2011 0
M  V30 103 H 3.314 3.0712 4.3031 0
M  V30 104 H 4.1609 -5.8289 -4.9576 0
M  V30 105 H 4.1748 -5.003 -0.7603 0
M  V30 106 H -4.4587 5.1997 -2.0344 0
M  V30 107 H 1.9696 -1.7582 6.107 0
M  V30 108 H -6.5434 5.1365 -3.6346 0
M  V30 109 H 4.3924 -2.2912 7.0448 0
M  V30 110 H -8.3348 3.9445 -4.6029 0
M  V30 111 H -8.5677 3.3974 -2.9335 0
M  V30 112 H 6.7333 -2.0454 6.8523 0
M  V30 113 H 6.3003 -0.3376 6.663 0
M  V30 114 H -5.5104 1.3711 -4.9171 0
M  V30 115 H -6.3508 2.4715 -6.0392 0
M  V30 116 H -7.3142 1.3536 -3.3766 0
M  V30 117 H -8.2477 1.548 -4.8689 0
M  V30 118 H 5.7678 -2.5763 3.1838 0
M  V30 119 H 6.5381 -3.5683 4.4492 0
M  V30 120 H 6.3811 -0.537 4.232 0
M  V30 121 H 7.7686 -1.5156 4.7358 0
M  V30 122 H -3.8528 2.3183 -6.0261 0
M  V30 123 H 4.714 -4.5225 3.0785 0
M  V30 124 H -1.8771 4.3246 -6.498 0
M  V30 125 H -1.8042 3.4106 -3.9976 0
M  V30 126 H 2.7099 -6.4142 3.9281 0
M  V30 127 H 1.652 -4.1747 3.1466 0
M  V30 128 H -3.5246 1.8174 -3.0257 0
M  V30 129 H -3.0703 0.6197 -4.2615 0
M  V30 130 H -1.9141 1.1048 -3.0342 0
M  V30 131 H 2.8681 -1.9981 2.7683 0
M  V30 132 H 3.7935 -2.7573 1.4522 0
M  V30 133 H 2.0629 -2.5274 1.2895 0
M  V30 134 H 0.0507 1.2662 -3.9976 0
M  V30 135 H 0.8107 1.6319 -5.5542 0
M  V30 136 H 0.4025 2.964 -4.4553 0
M  V30 137 H 0.9314 -4.3434 0.5503 0
M  V30 138 H 1.3569 -6.0225 0.1676 0
M  V30 139 H 0.5783 -5.6554 1.7193 0
M  V30 140 H -3.8619 4.8456 -10.1687 0
M  V30 141 H -4.4018 6.2998 -9.2521 0
M  V30 142 H -2.857 6.3078 -10.1257 0
M  V30 143 H 6.0089 -8.8095 4.957 0
M  V30 144 H 5.4549 -8.2213 6.5674 0
M  V30 145 H 4.7025 -9.6447 5.8205 0
M  V30 END ATOM
M  V30 BEGIN BOND
M  V30 1 1 1 2
M  V30 2 2 2 3
M  V30 3 1 2 4
M  V30 4 1 3 5
M  V30 5 1 3 6
M  V30 6 2 4 7
M  V30 7 1 5 8
M  V30 8 1 5 9
M  V30 9 1 6 10
M  V30 10 2 6 11
M  V30 11 1 7 12
M  V30 12 1 8 13
M  V30 13 1 9 14
M  V30 14 1 12 15
M  V30 15 1 12 16
M  V30 16 1 13 17
M  V30 17 1 15 18
M  V30 18 1 15 19
M  V30 19 1 16 20
M  V30 20 1 16 21
M  V30 21 1 17 22
M  V30 22 2 18 23
M  V30 23 1 18 24
M  V30 24 2 20 25
M  V30 25 1 20 26
M  V30 26 2 22 27
M  V30 27 1 22 28
M  V30 28 1 23 29
M  V30 29 1 23 30
M  V30 30 2 24 31
M  V30 31 1 25 32
M  V30 32 1 25 33
M  V30 33 2 26 34
M  V30 34 1 27 35
M  V30 35 2 28 36
M  V30 36 2 30 37
M  V30 37 1 31 38
M  V30 38 2 33 39
M  V30 39 1 34 40
M  V30 40 2 35 41
M  V30 41 1 37 42
M  V30 42 1 38 43
M  V30 43 1 39 44
M  V30 44 1 40 45
M  V30 45 1 41 46
M  V30 46 1 43 47
M  V30 47 1 45 48
M  V30 48 1 47 49
M  V30 49 1 47 50
M  V30 50 1 48 51
M  V30 51 1 48 52
M  V30 52 1 49 53
M  V30 53 1 49 54
M  V30 54 1 50 55
M  V30 55 1 51 56
M  V30 56 1 51 57
M  V30 57 1 52 58
M  V30 58 2 53 59
M  V30 59 1 53 60
M  V30 60 2 56 61
M  V30 61 1 56 62
M  V30 62 1 60 63
M  V30 63 1 60 64
M  V30 64 1 62 65
M  V30 65 1 62 66
M  V30 66 1 63 67
M  V30 67 1 64 68
M  V30 68 1 64 69
M  V30 69 1 65 70
M  V30 70 1 66 71
M  V30 71 1 66 72
M  V30 72 2 67 73
M  V30 73 1 67 74
M  V30 74 1 68 75
M  V30 75 2 70 76
M  V30 76 1 70 77
M  V30 77 1 71 78
M  V30 78 1 74 79
M  V30 79 1 77 80
M  V30 80 1 7 11
M  V30 81 1 14 17
M  V30 82 1 19 21
M  V30 83 1 31 37
M  V30 84 1 34 39
M  V30 85 1 36 41
M  V30 86 2 42 43
M  V30 87 2 44 45
M  V30 88 1 54 55
M  V30 89 1 57 58
M  V30 90 1 4 81
M  V30 91 1 8 82
M  V30 92 1 8 83
M  V30 93 1 9 84
M  V30 94 1 9 85
M  V30 95 1 11 86
M  V30 96 1 13 87
M  V30 97 1 13 88
M  V30 98 1 14 89
M  V30 99 1 14 90
M  V30 100 1 15 91
M  V30 101 1 16 92
M  V30 102 1 17 93
M  V30 103 1 19 94
M  V30 104 1 19 95
M  V30 105 1 21 96
M  V30 106 1 21 97
M  V30 107 1 24 98
M  V30 108 1 26 99
M  V30 109 1 27 100
M  V30 110 1 28 101
M  V30 111 1 30 102
M  V30 112 1 33 103
M  V30 113 1 35 104
M  V30 114 1 36 105
M  V30 115 1 38 106
M  V30 116 1 40 107
M  V30 117 1 47 108
M  V30 118 1 48 109
M  V30 119 1 50 110
M  V30 120 1 50 111
M  V30 121 1 52 112
M  V30 122 1 52 113
M  V30 123 1 54 114
M  V30 124 1 54 115
M  V30 125 1 55 116
M  V30 126 1 55 117
M  V30 127 1 57 118
M  V30 128 1 57 119
M  V30 129 1 58 120
M  V30 130 1 58 121
M  V30 131 1 60 122
M  V30 132 1 62 123
M  V30 133 1 63 124
M  V30 134 1 64 125
M  V30 135 1 65 126
M  V30 136 1 66 127
M  V30 137 1 69 128
M  V30 138 1 69 129
M  V30 139 1 69 130
M  V30 140 1 72 131
M  V30 141 1 72 132
M  V30 142 1 72 133
M  V30 143 1 75 134
M  V30 144 1 75 135
M  V30 145 1 75 136
M  V30 146 1 78 137
M  V30 147 1 78 138
M  V30 148 1 78 139
M  V30 149 1 79 140
M  V30 150 1 79 141
M  V30 151 1 79 142
M  V30 152 1 80 143
M  V30 153 1 80 144
M  V30 154 1 80 145
M  V30 END BOND
M  V30 BEGIN COLLECTION
M  V30 MDLV30/STEABS ATOMS=(8 15 16 47 48 60 62 64 66)
M  V30 END COLLECTION
M  V30 END CTAB
M  END
>  <level_0>
5789

>  <index>
5789

>  <NO.>
5790

>  <Name>
pibrentasvir

>  <SMILES>
COC(=O)N[C@H](C(=O)N1CCC[C@H]1c1nc2cc(F)c([C@H]3CC[C@H](c4cc5[nH]c([C@@H]6CCCN6C(=O)[C@@H](NC(=O)OC)[C@@H](C)OC)nc5cc4F)N3c3cc(F)c(N4CCC(c5ccc(F)cc5)CC4)c(F)c3)cc2[nH]1)[C@@H](C)OC

>  <logBB>


>  <Class>
-1

>  <MW>
1112.49

>  <nHBAcc>
12

>  <nHBDon>
4

>  <SLogP>
9.45

>  <TopoPSA>
199.58

>  <MMFF94 Energy>
27.352

$$$$
CON(C)Cc1ccc(O)c2c1C[C@H]1C[C@H]3[C@H](N(C)C)C(=O)C(C(N)=O)=C(O)[C@@]3(O)C(=O)C1=C2O
Actelion Java MolfileCreator 2.0

  0  0  0  0  0  0              0 V3000
M  V30 BEGIN CTAB
M  V30 COUNTS 64 67 0 0 0
M  V30 BEGIN ATOM
M  V30 1 O 1.3638 0.9625 -3.3719 0
M  V30 2 C 0.676 0.4623 -2.4795 0
M  V30 3 C 1.0149 0.7144 -1.063 0
M  V30 4 C -0.6147 -0.3687 -2.745 0 CFG=2
M  V30 5 C 1.1508 1.971 -0.618 0
M  V30 6 C 1.0251 -0.5083 -0.2232 0 CFG=1
M  V30 7 O -0.432 -0.9238 -4.0526 0
M  V30 8 C -1.8025 0.5723 -2.8466 0
M  V30 9 C -0.7916 -1.5142 -1.718 0 CFG=1
M  V30 10 O 1.1835 3.0554 -1.469 0
M  V30 11 C 1.1799 2.2397 0.8461 0
M  V30 12 C 1.5513 -0.2519 1.1947 0
M  V30 13 C -0.3856 -1.0971 -0.2662 0
M  V30 14 O -1.5261 1.7066 -3.6106 0
M  V30 15 C -3.0196 0.3392 -2.3039 0
M  V30 16 C -2.2353 -2.0717 -1.6511 0 CFG=1
M  V30 17 C 1.0368 3.5305 1.3969 0
M  V30 18 C 1.3233 1.1436 1.7445 0
M  V30 19 C -3.2782 -0.9468 -1.588 0
M  V30 20 C -4.096 1.3655 -2.4824 0
M  V30 21 N -2.6937 -3.1277 -2.5811 0
M  V30 22 O 0.8435 4.6235 0.5944 0
M  V30 23 C 1.0642 3.7429 2.7759 0
M  V30 24 C 1.3616 1.3627 3.1492 0
M  V30 25 O -4.3326 -1.1016 -0.9618 0
M  V30 26 O -3.9056 2.4034 -3.1137 0
M  V30 27 N -5.3034 1.1135 -1.9214 0
M  V30 28 C -2.6455 -2.8306 -4.0055 0
M  V30 29 C -2.0596 -4.4183 -2.3123 0
M  V30 30 C 1.2296 2.6692 3.6419 0
M  V30 31 C 1.5632 0.2421 4.1602 0
M  V30 32 N 2.9084 -0.3549 4.0913 0
M  V30 33 O 3.8154 0.6457 4.6556 0
M  V30 34 C 3.007 -1.4903 5.0081 0
M  V30 35 C 4.8195 0.9411 3.6865 0
M  V30 36 H 1.7031 -1.247 -0.6746 0
M  V30 37 H -0.1679 -0.1652 -4.6163 0
M  V30 38 H -0.117 -2.3337 -2.0009 0
M  V30 39 H 1.3181 2.7425 -2.386 0
M  V30 40 H 1.1289 -1.012 1.8594 0
M  V30 41 H 2.6393 -0.4062 1.1864 0
M  V30 42 H -0.4197 -1.9859 0.3774 0
M  V30 43 H -1.1096 -0.382 0.1469 0
M  V30 44 H -2.3169 2.2968 -3.6359 0
M  V30 45 H -2.3331 -2.53 -0.6543 0
M  V30 46 H 0.8498 5.4319 1.1275 0
M  V30 47 H 0.9567 4.7401 3.1922 0
M  V30 48 H -5.4774 0.2623 -1.3873 0
M  V30 49 H -6.0502 1.786 -2.0242 0
M  V30 50 H -1.6358 -2.9122 -4.4158 0
M  V30 51 H -3.0583 -1.8452 -4.2379 0
M  V30 52 H -3.2683 -3.5503 -4.5503 0
M  V30 53 H -0.9876 -4.4097 -2.5358 0
M  V30 54 H -2.1921 -4.7098 -1.2645 0
M  V30 55 H -2.5261 -5.2082 -2.9122 0
M  V30 56 H 1.2663 2.8585 4.713 0
M  V30 57 H 1.3593 0.61 5.1755 0
M  V30 58 H 0.7962 -0.5193 3.9695 0
M  V30 59 H 2.3246 -2.2902 4.7012 0
M  V30 60 H 4.0197 -1.9068 4.9825 0
M  V30 61 H 2.7764 -1.2132 6.0432 0
M  V30 62 H 4.3747 1.3637 2.7806 0
M  V30 63 H 5.5004 1.6807 4.1165 0
M  V30 64 H 5.392 0.0406 3.4425 0
M  V30 END ATOM
M  V30 BEGIN BOND
M  V30 1 2 1 2
M  V30 2 1 2 3
M  V30 3 1 2 4
M  V30 4 2 3 5
M  V30 5 1 3 6
M  V30 6 1 4 7
M  V30 7 1 4 8
M  V30 8 1 4 9
M  V30 9 1 5 10
M  V30 10 1 5 11
M  V30 11 1 6 12
M  V30 12 1 6 13
M  V30 13 1 8 14
M  V30 14 2 8 15
M  V30 15 1 9 16
M  V30 16 2 11 17
M  V30 17 1 11 18
M  V30 18 1 15 19
M  V30 19 1 15 20
M  V30 20 1 16 21
M  V30 21 1 17 22
M  V30 22 1 17 23
M  V30 23 2 18 24
M  V30 24 2 19 25
M  V30 25 2 20 26
M  V30 26 1 20 27
M  V30 27 1 21 28
M  V30 28 1 21 29
M  V30 29 2 23 30
M  V30 30 1 24 31
M  V30 31 1 31 32
M  V30 32 1 32 33
M  V30 33 1 32 34
M  V30 34 1 33 35
M  V30 35 1 9 13
M  V30 36 1 12 18
M  V30 37 1 16 19
M  V30 38 1 24 30
M  V30 39 1 6 36
M  V30 40 1 7 37
M  V30 41 1 9 38
M  V30 42 1 10 39
M  V30 43 1 12 40
M  V30 44 1 12 41
M  V30 45 1 13 42
M  V30 46 1 13 43
M  V30 47 1 14 44
M  V30 48 1 16 45
M  V30 49 1 22 46
M  V30 50 1 23 47
M  V30 51 1 27 48
M  V30 52 1 27 49
M  V30 53 1 28 50
M  V30 54 1 28 51
M  V30 55 1 28 52
M  V30 56 1 29 53
M  V30 57 1 29 54
M  V30 58 1 29 55
M  V30 59 1 30 56
M  V30 60 1 31 57
M  V30 61 1 31 58
M  V30 62 1 34 59
M  V30 63 1 34 60
M  V30 64 1 34 61
M  V30 65 1 35 62
M  V30 66 1 35 63
M  V30 67 1 35 64
M  V30 END BOND
M  V30 BEGIN COLLECTION
M  V30 MDLV30/STEABS ATOMS=(4 4 6 9 16)
M  V30 END COLLECTION
M  V30 END CTAB
M  END
>  <level_0>
5797

>  <index>
5797

>  <NO.>
5798

>  <Name>
sarecycline

>  <SMILES>
CON(C)Cc1ccc(O)c2c1C[C@H]1C[C@H]3[C@H](N(C)C)C(=O)C(C(N)=O)=C(O)[C@@]3(O)C(=O)C1=C2O

>  <logBB>


>  <Class>
-1

>  <MW>
487.2

>  <nHBAcc>
10

>  <nHBDon>
5

>  <SLogP>
-0.04

>  <TopoPSA>
173.86

>  <MMFF94 Energy>
133.63

$$$$
COc1cc(C)c2c(Oc3cccc(C(F)(F)F)c3)c(OC)cc(NC(C)CCCN)c2n1
Actelion Java MolfileCreator 2.0

  0  0  0  0  0  0              0 V3000
M  V30 BEGIN CTAB
M  V30 COUNTS 61 63 0 0 0
M  V30 BEGIN ATOM
M  V30 1 F 4.0559 5.0918 -3.3393 0
M  V30 2 C 4.6072 3.8876 -3.6583 0
M  V30 3 F 5.8976 3.9454 -3.2233 0
M  V30 4 F 4.6741 3.8555 -5.0181 0
M  V30 5 C 3.844 2.7164 -3.0949 0
M  V30 6 C 2.4485 2.7779 -2.9595 0
M  V30 7 C 4.5082 1.5344 -2.7323 0
M  V30 8 C 1.7354 1.6925 -2.4452 0
M  V30 9 C 3.7935 0.4434 -2.2347 0
M  V30 10 O 0.3654 1.8522 -2.3743 0
M  V30 11 C 2.4073 0.5193 -2.0943 0
M  V30 12 C -0.2965 1.1947 -1.3518 0
M  V30 13 C -1.1815 0.121 -1.6712 0
M  V30 14 C -0.1079 1.6451 -0.0328 0
M  V30 15 C -1.8129 -0.5391 -0.586 0
M  V30 16 C -1.4922 -0.3629 -2.9834 0
M  V30 17 O 0.7018 2.7383 0.1392 0
M  V30 18 C -0.766 0.989 0.9999 0
M  V30 19 N -2.6387 -1.5963 -0.7561 0
M  V30 20 C -1.5989 -0.1059 0.7429 0
M  V30 21 C -2.351 -1.4575 -3.1288 0
M  V30 22 C -0.9404 0.2461 -4.2456 0
M  V30 23 C 1.1749 2.999 1.4548 0
M  V30 24 C -2.8896 -2.0315 -2.0009 0
M  V30 25 N -2.2546 -0.7954 1.7636 0
M  V30 26 O -3.7286 -3.1092 -2.2017 0
M  V30 27 C -2.2081 -0.5745 3.1965 0 CFG=2
M  V30 28 C -4.2709 -3.6275 -0.9919 0
M  V30 29 C -1.2601 -1.584 3.8645 0
M  V30 30 C -3.628 -0.7554 3.743 0
M  V30 31 C 0.2153 -1.3329 3.5363 0
M  V30 32 C 1.1213 -2.2995 4.2966 0
M  V30 33 N 2.5204 -2.0206 3.9932 0
M  V30 34 H 1.9094 3.681 -3.242 0
M  V30 35 H 5.5897 1.459 -2.8386 0
M  V30 36 H 4.3161 -0.4698 -1.9602 0
M  V30 37 H 1.868 -0.3461 -1.7208 0
M  V30 38 H -0.6393 1.3265 2.0195 0
M  V30 39 H -2.6037 -1.8577 -4.1051 0
M  V30 40 H -1.3985 -0.1966 -5.1375 0
M  V30 41 H -1.1585 1.3176 -4.2872 0
M  V30 42 H 0.136 0.069 -4.3186 0
M  V30 43 H 0.3664 3.3696 2.093 0
M  V30 44 H 1.932 3.7862 1.387 0
M  V30 45 H 1.6517 2.1151 1.8921 0
M  V30 46 H -2.8028 -1.5813 1.4088 0
M  V30 47 H -1.9036 0.4468 3.4461 0
M  V30 48 H -4.9243 -4.4661 -1.2519 0
M  V30 49 H -3.4822 -4.0116 -0.3355 0
M  V30 50 H -4.8814 -2.8777 -0.4763 0
M  V30 51 H -1.3894 -1.5271 4.9531 0
M  V30 52 H -1.5284 -2.606 3.5663 0
M  V30 53 H -4.0051 -1.7668 3.5529 0
M  V30 54 H -4.3189 -0.0501 3.2676 0
M  V30 55 H -3.6561 -0.5789 4.8234 0
M  V30 56 H 0.3846 -1.4525 2.46 0
M  V30 57 H 0.4764 -0.2995 3.7969 0
M  V30 58 H 0.8877 -3.3339 4.0218 0
M  V30 59 H 0.9643 -2.1964 5.3757 0
M  V30 60 H 3.1096 -2.7112 4.4567 0
M  V30 61 H 2.6807 -2.137 2.9928 0
M  V30 END ATOM
M  V30 BEGIN BOND
M  V30 1 1 1 2
M  V30 2 1 2 3
M  V30 3 1 2 4
M  V30 4 1 2 5
M  V30 5 2 5 6
M  V30 6 1 5 7
M  V30 7 1 6 8
M  V30 8 2 7 9
M  V30 9 1 8 10
M  V30 10 2 8 11
M  V30 11 1 10 12
M  V30 12 1 12 13
M  V30 13 2 12 14
M  V30 14 1 13 15
M  V30 15 2 13 16
M  V30 16 1 14 17
M  V30 17 1 14 18
M  V30 18 2 15 19
M  V30 19 1 15 20
M  V30 20 1 16 21
M  V30 21 1 16 22
M  V30 22 1 17 23
M  V30 23 1 19 24
M  V30 24 1 20 25
M  V30 25 1 24 26
M  V30 26 1 25 27
M  V30 27 1 26 28
M  V30 28 1 27 29
M  V30 29 1 27 30
M  V30 30 1 29 31
M  V30 31 1 31 32
M  V30 32 1 32 33
M  V30 33 1 9 11
M  V30 34 2 18 20
M  V30 35 2 21 24
M  V30 36 1 6 34
M  V30 37 1 7 35
M  V30 38 1 9 36
M  V30 39 1 11 37
M  V30 40 1 18 38
M  V30 41 1 21 39
M  V30 42 1 22 40
M  V30 43 1 22 41
M  V30 44 1 22 42
M  V30 45 1 23 43
M  V30 46 1 23 44
M  V30 47 1 23 45
M  V30 48 1 25 46
M  V30 49 1 27 47
M  V30 50 1 28 48
M  V30 51 1 28 49
M  V30 52 1 28 50
M  V30 53 1 29 51
M  V30 54 1 29 52
M  V30 55 1 30 53
M  V30 56 1 30 54
M  V30 57 1 30 55
M  V30 58 1 31 56
M  V30 59 1 31 57
M  V30 60 1 32 58
M  V30 61 1 32 59
M  V30 62 1 33 60
M  V30 63 1 33 61
M  V30 END BOND
M  V30 BEGIN COLLECTION
M  V30 MDLV30/STERAC1 ATOMS=(1 27)
M  V30 END COLLECTION
M  V30 END CTAB
M  END
>  <level_0>
5801

>  <index>
5801

>  <NO.>
5802

>  <Name>
tafenoquine

>  <SMILES>
COc1cc(C)c2c(Oc3cccc(C(F)(F)F)c3)c(OC)cc(NC(C)CCCN)c2n1

>  <logBB>


>  <Class>
-1

>  <MW>
463.21

>  <nHBAcc>
6

>  <nHBDon>
2

>  <SLogP>
5.91

>  <TopoPSA>
78.63

>  <MMFF94 Energy>
111.85

$$$$
COc1cc(Nc2c(C#N)cnc3cc(OCCCN4CCN(C)CC4)c(OC)cc23)c(Cl)cc1Cl
Actelion Java MolfileCreator 2.0

  0  0  0  0  0  0              0 V3000
M  V30 BEGIN CTAB
M  V30 COUNTS 65 68 0 0 0
M  V30 BEGIN ATOM
M  V30 1 Cl 1.9347 7.837 6.703 0
M  V30 2 C 1.6327 6.2392 6.1143 0
M  V30 3 C 0.5578 5.9672 5.254 0
M  V30 4 C 2.494 5.2219 6.5223 0
M  V30 5 O -0.2301 7.0291 4.892 0
M  V30 6 C 0.3691 4.6558 4.795 0
M  V30 7 C 2.2846 3.9217 6.0673 0
M  V30 8 C -1.4956 6.7369 4.3126 0
M  V30 9 C 1.2193 3.6126 5.1989 0
M  V30 10 Cl 3.3806 2.6854 6.5848 0
M  V30 11 N 1.0246 2.2847 4.7607 0
M  V30 12 C -0.082 1.6656 4.1333 0
M  V30 13 C -1.3576 1.6601 4.7181 0
M  V30 14 C 0.1126 0.982 2.8985 0
M  V30 15 C -1.6472 2.2582 5.9838 0
M  V30 16 C -2.3759 1.0034 4.0514 0
M  V30 17 C -1.001 0.3438 2.3139 0
M  V30 18 C 1.3564 0.928 2.2235 0
M  V30 19 N -1.9185 2.7445 7.0024 0
M  V30 20 N -2.2193 0.3589 2.8746 0
M  V30 21 C -0.846 -0.3293 1.1107 0
M  V30 22 C 1.4996 0.2486 1.011 0
M  V30 23 C 0.3844 -0.3915 0.4503 0
M  V30 24 O 2.6708 0.1544 0.3043 0
M  V30 25 O 0.5969 -1.0426 -0.7388 0
M  V30 26 C 3.8179 0.8127 0.8224 0
M  V30 27 C -0.5073 -1.715 -1.3424 0
M  V30 28 C -0.0139 -2.363 -2.6345 0
M  V30 29 C -1.155 -3.0812 -3.3597 0
M  V30 30 N -0.7035 -3.8411 -4.5357 0
M  V30 31 C -1.8056 -4.6857 -5.0484 0
M  V30 32 C -0.2311 -2.9614 -5.6269 0
M  V30 33 C -1.4099 -5.4754 -6.3164 0
M  V30 34 C 0.1548 -3.75 -6.9013 0
M  V30 35 N -0.9533 -4.5859 -7.4004 0
M  V30 36 C -0.5325 -5.3617 -8.5642 0
M  V30 37 H 3.3215 5.4427 7.191 0
M  V30 38 H -0.4281 4.4357 4.0937 0
M  V30 39 H -1.3773 6.3505 3.2953 0
M  V30 40 H -2.0583 7.6733 4.2489 0
M  V30 41 H -2.0715 6.0434 4.9349 0
M  V30 42 H 1.7908 1.6533 4.992 0
M  V30 43 H -3.3855 0.9601 4.4565 0
M  V30 44 H 2.2074 1.4396 2.661 0
M  V30 45 H -1.7291 -0.8087 0.7001 0
M  V30 46 H 3.6584 1.8943 0.8844 0
M  V30 47 H 4.6458 0.6382 0.1285 0
M  V30 48 H 4.1055 0.3979 1.7941 0
M  V30 49 H -1.3011 -0.9952 -1.5759 0
M  V30 50 H -0.889 -2.4907 -0.6676 0
M  V30 51 H 0.4313 -1.5859 -3.2665 0
M  V30 52 H 0.795 -3.0664 -2.3997 0
M  V30 53 H -1.6109 -3.7801 -2.646 0
M  V30 54 H -1.9341 -2.359 -3.6372 0
M  V30 55 H -2.0982 -5.4092 -4.2775 0
M  V30 56 H -2.6883 -4.0703 -5.271 0
M  V30 57 H 0.6591 -2.4101 -5.306 0
M  V30 58 H -1.0017 -2.2221 -5.8839 0
M  V30 59 H -2.2858 -6.0425 -6.654 0
M  V30 60 H -0.6291 -6.2032 -6.0563 0
M  V30 61 H 1.0372 -4.3675 -6.6842 0
M  V30 62 H 0.444 -3.0284 -7.675 0
M  V30 63 H 0.2987 -6.0386 -8.3362 0
M  V30 64 H -1.3669 -5.9587 -8.9487 0
M  V30 65 H -0.2212 -4.6956 -9.3765 0
M  V30 END ATOM
M  V30 BEGIN BOND
M  V30 1 1 1 2
M  V30 2 2 2 3
M  V30 3 1 2 4
M  V30 4 1 3 5
M  V30 5 1 3 6
M  V30 6 2 4 7
M  V30 7 1 5 8
M  V30 8 2 6 9
M  V30 9 1 7 10
M  V30 10 1 9 11
M  V30 11 1 11 12
M  V30 12 2 12 13
M  V30 13 1 12 14
M  V30 14 1 13 15
M  V30 15 1 13 16
M  V30 16 1 14 17
M  V30 17 2 14 18
M  V30 18 3 15 19
M  V30 19 2 16 20
M  V30 20 2 17 21
M  V30 21 1 18 22
M  V30 22 1 21 23
M  V30 23 1 22 24
M  V30 24 1 23 25
M  V30 25 1 24 26
M  V30 26 1 25 27
M  V30 27 1 27 28
M  V30 28 1 28 29
M  V30 29 1 29 30
M  V30 30 1 30 31
M  V30 31 1 30 32
M  V30 32 1 31 33
M  V30 33 1 32 34
M  V30 34 1 33 35
M  V30 35 1 35 36
M  V30 36 1 7 9
M  V30 37 1 17 20
M  V30 38 2 22 23
M  V30 39 1 34 35
M  V30 40 1 4 37
M  V30 41 1 6 38
M  V30 42 1 8 39
M  V30 43 1 8 40
M  V30 44 1 8 41
M  V30 45 1 11 42
M  V30 46 1 16 43
M  V30 47 1 18 44
M  V30 48 1 21 45
M  V30 49 1 26 46
M  V30 50 1 26 47
M  V30 51 1 26 48
M  V30 52 1 27 49
M  V30 53 1 27 50
M  V30 54 1 28 51
M  V30 55 1 28 52
M  V30 56 1 29 53
M  V30 57 1 29 54
M  V30 58 1 31 55
M  V30 59 1 31 56
M  V30 60 1 32 57
M  V30 61 1 32 58
M  V30 62 1 33 59
M  V30 63 1 33 60
M  V30 64 1 34 61
M  V30 65 1 34 62
M  V30 66 1 36 63
M  V30 67 1 36 64
M  V30 68 1 36 65
M  V30 END BOND
M  V30 END CTAB
M  END
>  <level_0>
5805

>  <index>
5805

>  <NO.>
5806

>  <Name>
bosutinib

>  <SMILES>
COc1cc(Nc2c(C#N)cnc3cc(OCCCN4CCN(C)CC4)c(OC)cc23)c(Cl)cc1Cl

>  <logBB>


>  <Class>
-1

>  <MW>
529.16

>  <nHBAcc>
8

>  <nHBDon>
1

>  <SLogP>
5.19

>  <TopoPSA>
82.88

>  <MMFF94 Energy>
177.26

$$$$
COc1cc(Nc2ncc(F)c(Nc3ccc4c(n3)N(COP(=O)(O)O)C(=O)C(C)(C)O4)n2)cc(OC)c1OC
Actelion Java MolfileCreator 2.0

  0  0  0  0  0  0              0 V3000
M  V30 BEGIN CTAB
M  V30 COUNTS 66 69 0 0 0
M  V30 BEGIN ATOM
M  V30 1 P 3.379 2.8957 -4.5879 0
M  V30 2 O 3.4369 2.6364 -3.1209 0
M  V30 3 O 2.5109 1.9401 -5.5252 0
M  V30 4 O 2.796 4.3394 -4.9474 0
M  V30 5 O 4.8037 2.9611 -5.3049 0
M  V30 6 C 2.9373 0.5959 -5.6069 0
M  V30 7 N 1.7832 -0.2808 -5.5334 0
M  V30 8 C 1.0492 -0.3039 -4.3349 0
M  V30 9 C 1.3904 -1.0379 -6.6152 0
M  V30 10 N 1.5308 0.4025 -3.2923 0
M  V30 11 C -0.1522 -0.9903 -4.2699 0
M  V30 12 O 1.9677 -1.0027 -7.7031 0
M  V30 13 C 0.2289 -2.0293 -6.3395 0
M  V30 14 C 0.8261 0.4779 -2.1476 0
M  V30 15 O -0.6924 -1.7022 -5.2973 0
M  V30 16 C -0.8809 -0.9234 -3.0896 0
M  V30 17 C 0.8472 -3.3966 -6.0065 0
M  V30 18 C -0.6153 -2.1598 -7.6141 0
M  V30 19 N 1.4018 1.2895 -1.1845 0
M  V30 20 C -0.3854 -0.1819 -2.0151 0
M  V30 21 C 1.1494 1.4899 0.1791 0
M  V30 22 N 0.2891 0.6902 0.8481 0
M  V30 23 C 1.7708 2.5479 0.8176 0
M  V30 24 C 0.0627 0.9286 2.1541 0
M  V30 25 F 2.6173 3.3667 0.1791 0
M  V30 26 C 1.4831 2.7277 2.1442 0
M  V30 27 N 0.6379 1.9346 2.8292 0
M  V30 28 N -0.8197 0.04 2.7616 0
M  V30 29 C -1.3512 -0.0868 4.0532 0
M  V30 30 C -2.2115 -1.1706 4.3139 0
M  V30 31 C -1.0713 0.8029 5.099 0
M  V30 32 C -2.7779 -1.3688 5.577 0
M  V30 33 C -1.6236 0.6295 6.3737 0
M  V30 34 O -3.6201 -2.3996 5.9066 0
M  V30 35 C -2.4601 -0.472 6.6065 0
M  V30 36 O -1.3996 1.458 7.4445 0
M  V30 37 C -4.1136 -3.2072 4.8475 0
M  V30 38 O -3.0418 -0.6333 7.8451 0
M  V30 39 C -0.674 2.6557 7.2032 0
M  V30 40 C -2.195 -1.4258 8.6754 0
M  V30 41 H 1.9184 4.4678 -4.5435 0
M  V30 42 H 5.3758 3.6228 -4.8767 0
M  V30 43 H 3.4652 0.4669 -6.5565 0
M  V30 44 H 3.6378 0.3321 -4.8045 0
M  V30 45 H -1.8352 -1.4353 -3.0047 0
M  V30 46 H 1.4997 -3.7524 -6.8112 0
M  V30 47 H 1.4479 -3.346 -5.0909 0
M  V30 48 H 0.0682 -4.1468 -5.8293 0
M  V30 49 H -1.4522 -2.8516 -7.4629 0
M  V30 50 H -0.0264 -2.5119 -8.4677 0
M  V30 51 H -1.0534 -1.1912 -7.883 0
M  V30 52 H 2.2623 1.7085 -1.5423 0
M  V30 53 H -0.9682 -0.1119 -1.1045 0
M  V30 54 H 1.9367 3.5361 2.7068 0
M  V30 55 H -1.1076 -0.6464 2.0795 0
M  V30 56 H -2.4251 -1.862 3.5056 0
M  V30 57 H -0.4132 1.6411 4.9114 0
M  V30 58 H -4.6317 -2.6043 4.0942 0
M  V30 59 H -4.8408 -3.9067 5.2711 0
M  V30 60 H -3.3087 -3.7973 4.3976 0
M  V30 61 H 0.3619 2.4378 6.9241 0
M  V30 62 H -0.6523 3.2266 8.1366 0
M  V30 63 H -1.1677 3.2752 6.4468 0
M  V30 64 H -2.0435 -2.4255 8.2536 0
M  V30 65 H -2.69 -1.541 9.6445 0
M  V30 66 H -1.2297 -0.9367 8.8463 0
M  V30 END ATOM
M  V30 BEGIN BOND
M  V30 1 2 1 2
M  V30 2 1 1 3
M  V30 3 1 1 4
M  V30 4 1 1 5
M  V30 5 1 3 6
M  V30 6 1 6 7
M  V30 7 1 7 8
M  V30 8 1 7 9
M  V30 9 2 8 10
M  V30 10 1 8 11
M  V30 11 2 9 12
M  V30 12 1 9 13
M  V30 13 1 10 14
M  V30 14 1 11 15
M  V30 15 2 11 16
M  V30 16 1 13 17
M  V30 17 1 13 18
M  V30 18 1 14 19
M  V30 19 2 14 20
M  V30 20 1 19 21
M  V30 21 2 21 22
M  V30 22 1 21 23
M  V30 23 1 22 24
M  V30 24 1 23 25
M  V30 25 2 23 26
M  V30 26 2 24 27
M  V30 27 1 24 28
M  V30 28 1 28 29
M  V30 29 2 29 30
M  V30 30 1 29 31
M  V30 31 1 30 32
M  V30 32 2 31 33
M  V30 33 1 32 34
M  V30 34 2 32 35
M  V30 35 1 33 36
M  V30 36 1 34 37
M  V30 37 1 35 38
M  V30 38 1 36 39
M  V30 39 1 38 40
M  V30 40 1 13 15
M  V30 41 1 16 20
M  V30 42 1 26 27
M  V30 43 1 33 35
M  V30 44 1 4 41
M  V30 45 1 5 42
M  V30 46 1 6 43
M  V30 47 1 6 44
M  V30 48 1 16 45
M  V30 49 1 17 46
M  V30 50 1 17 47
M  V30 51 1 17 48
M  V30 52 1 18 49
M  V30 53 1 18 50
M  V30 54 1 18 51
M  V30 55 1 19 52
M  V30 56 1 20 53
M  V30 57 1 26 54
M  V30 58 1 28 55
M  V30 59 1 30 56
M  V30 60 1 31 57
M  V30 61 1 37 58
M  V30 62 1 37 59
M  V30 63 1 37 60
M  V30 64 1 39 61
M  V30 65 1 39 62
M  V30 66 1 39 63
M  V30 67 1 40 64
M  V30 68 1 40 65
M  V30 69 1 40 66
M  V30 END BOND
M  V30 END CTAB
M  END
>  <level_0>
5806

>  <index>
5806

>  <NO.>
5807

>  <Name>
fostamatinib

>  <SMILES>
COc1cc(Nc2ncc(F)c(Nc3ccc4c(n3)N(COP(=O)(O)O)C(=O)C(C)(C)O4)n2)cc(OC)c1OC

>  <logBB>


>  <Class>
-1

>  <MW>
580.15

>  <nHBAcc>
12

>  <nHBDon>
4

>  <SLogP>
3.09

>  <TopoPSA>
186.72

>  <MMFF94 Energy>
-224.78

$$$$
COc1cc2c3cc1Oc1cc(ccc1O)CC1c4c(cc(OC)c(O)c4Oc4ccc(cc4)CC3N(C)CC2)CC[N+]1(C)C
Actelion Java MolfileCreator 2.0

  0  0  0  0  0  0              0 V3000
M  V30 BEGIN CTAB
M  V30 COUNTS 86 92 0 0 0
M  V30 BEGIN ATOM
M  V30 1 O -0.8816 0.4006 -2.3257 0
M  V30 2 C -1.3582 1.6437 -1.9292 0
M  V30 3 C 0.4603 0.1646 -2.1491 0
M  V30 4 C -2.5086 2.1207 -2.5756 0
M  V30 5 C -0.7858 2.3915 -0.8885 0
M  V30 6 C 1.3906 0.5588 -3.1084 0
M  V30 7 C 0.8767 -0.4714 -0.975 0
M  V30 8 O -3.0255 1.3175 -3.5601 0
M  V30 9 C -3.0423 3.3571 -2.1909 0
M  V30 10 C -1.3528 3.6018 -0.4579 0
M  V30 11 O 0.9603 1.1324 -4.268 0
M  V30 12 C 2.7479 0.3838 -2.8653 0
M  V30 13 C 2.24 -0.6228 -0.6968 0
M  V30 14 C -4.132 1.8158 -4.2991 0
M  V30 15 C -2.4723 4.1004 -1.1402 0
M  V30 16 C -0.7706 4.3287 0.7541 0
M  V30 17 C 3.169 -0.1788 -1.6548 0
M  V30 18 C 2.701 -1.0948 0.6615 0
M  V30 19 C -3.0124 5.4737 -0.8229 0
M  V30 20 N -1.0212 5.7938 0.7187 0
M  V30 21 C -1.3 3.7521 2.1085 0
M  V30 22 C 2.4653 -2.5632 1.1334 0
M  V30 23 C -2.4424 6.084 0.4655 0
M  V30 24 C -0.148 6.4751 -0.2374 0
M  V30 25 C -0.8511 2.3413 2.4319 0
M  V30 26 N 3.3847 -3.6188 0.3931 0 CHG=1
M  V30 27 C 1.0135 -3.0242 1.2142 0
M  V30 28 C -1.6346 1.2547 2.0307 0
M  V30 29 C 0.3447 2.0916 3.1147 0
M  V30 30 C 2.7489 -3.9708 -0.9517 0
M  V30 31 C 4.8027 -3.1103 0.1595 0
M  V30 32 C 3.5289 -4.8711 1.2791 0
M  V30 33 C 0.166 -2.5803 2.2507 0
M  V30 34 C 0.5133 -3.9951 0.3164 0
M  V30 35 C -1.2003 -0.0547 2.2409 0
M  V30 36 C 0.7613 0.7761 3.3579 0
M  V30 37 C 1.352 -4.5664 -0.8009 0
M  V30 38 O 0.5753 -1.5611 3.0863 0
M  V30 39 C -1.0587 -3.2215 2.4792 0
M  V30 40 C -0.7747 -4.5433 0.5008 0
M  V30 41 C 0.0124 -0.3073 2.8863 0
M  V30 42 O -1.8001 -2.891 3.5849 0
M  V30 43 C -1.5523 -4.182 1.5962 0
M  V30 44 O -2.7832 -4.6876 1.9187 0
M  V30 45 C -3.3876 -5.571 0.9797 0
M  V30 46 H 0.0921 2.0261 -0.3658 0
M  V30 47 H 0.1146 -0.7492 -0.2526 0
M  V30 48 H -3.9084 3.7737 -2.6964 0
M  V30 49 H 1.7166 1.4687 -4.7738 0
M  V30 50 H 3.4893 0.7134 -3.5878 0
M  V30 51 H -5.0073 1.9507 -3.6552 0
M  V30 52 H -4.39 1.0706 -5.0577 0
M  V30 53 H -3.8751 2.7444 -4.8196 0
M  V30 54 H 0.3185 4.1796 0.7485 0
M  V30 55 H 4.2384 -0.2256 -1.4613 0
M  V30 56 H 3.765 -0.8516 0.7743 0
M  V30 57 H 2.2339 -0.4182 1.3809 0
M  V30 58 H -4.1051 5.4307 -0.7419 0
M  V30 59 H -2.7677 6.1312 -1.6669 0
M  V30 60 H -0.9702 4.4016 2.9315 0
M  V30 61 H -2.3974 3.7734 2.1389 0
M  V30 62 H 2.8548 -2.5975 2.1613 0
M  V30 63 H -2.6097 7.1689 0.4584 0
M  V30 64 H -3.0337 5.7248 1.3168 0
M  V30 65 H -0.283 6.1363 -1.2697 0
M  V30 66 H -0.3221 7.5566 -0.2086 0
M  V30 67 H 0.9029 6.3252 0.034 0
M  V30 68 H -2.5816 1.4198 1.5182 0
M  V30 69 H 0.9578 2.9198 3.4646 0
M  V30 70 H 3.4137 -4.6786 -1.4615 0
M  V30 71 H 2.7181 -3.0605 -1.5539 0
M  V30 72 H 5.1982 -2.7345 1.1075 0
M  V30 73 H 4.7879 -2.3298 -0.6012 0
M  V30 74 H 5.4143 -3.9434 -0.2017 0
M  V30 75 H 2.5465 -5.2606 1.5508 0
M  V30 76 H 4.0876 -5.6248 0.716 0
M  V30 77 H 4.0773 -4.5878 2.1829 0
M  V30 78 H -1.8453 -0.8481 1.8812 0
M  V30 79 H 1.6893 0.6039 3.8964 0
M  V30 80 H 0.8174 -4.4502 -1.7517 0
M  V30 81 H 1.455 -5.6453 -0.6248 0
M  V30 82 H -1.127 -5.2929 -0.2036 0
M  V30 83 H -2.6124 -3.4333 3.5395 0
M  V30 84 H -3.5144 -5.0865 0.0058 0
M  V30 85 H -4.3817 -5.8299 1.3566 0
M  V30 86 H -2.8124 -6.498 0.8889 0
M  V30 END ATOM
M  V30 BEGIN BOND
M  V30 1 1 1 2
M  V30 2 1 1 3
M  V30 3 2 2 4
M  V30 4 1 2 5
M  V30 5 2 3 6
M  V30 6 1 3 7
M  V30 7 1 4 8
M  V30 8 1 4 9
M  V30 9 2 5 10
M  V30 10 1 6 11
M  V30 11 1 6 12
M  V30 12 2 7 13
M  V30 13 1 8 14
M  V30 14 2 9 15
M  V30 15 1 10 16
M  V30 16 2 12 17
M  V30 17 1 13 18
M  V30 18 1 15 19
M  V30 19 1 16 20
M  V30 20 1 16 21
M  V30 21 1 18 22
M  V30 22 1 19 23
M  V30 23 1 20 24
M  V30 24 1 21 25
M  V30 25 1 22 26
M  V30 26 1 22 27
M  V30 27 2 25 28
M  V30 28 1 25 29
M  V30 29 1 26 30
M  V30 30 1 26 31
M  V30 31 1 26 32
M  V30 32 2 27 33
M  V30 33 1 27 34
M  V30 34 1 28 35
M  V30 35 2 29 36
M  V30 36 1 30 37
M  V30 37 1 33 38
M  V30 38 1 33 39
M  V30 39 2 34 40
M  V30 40 2 35 41
M  V30 41 1 39 42
M  V30 42 2 39 43
M  V30 43 1 43 44
M  V30 44 1 44 45
M  V30 45 1 10 15
M  V30 46 1 13 17
M  V30 47 1 20 23
M  V30 48 1 34 37
M  V30 49 1 36 41
M  V30 50 1 38 41
M  V30 51 1 40 43
M  V30 52 1 5 46
M  V30 53 1 7 47
M  V30 54 1 9 48
M  V30 55 1 11 49
M  V30 56 1 12 50
M  V30 57 1 14 51
M  V30 58 1 14 52
M  V30 59 1 14 53
M  V30 60 1 16 54
M  V30 61 1 17 55
M  V30 62 1 18 56
M  V30 63 1 18 57
M  V30 64 1 19 58
M  V30 65 1 19 59
M  V30 66 1 21 60
M  V30 67 1 21 61
M  V30 68 1 22 62
M  V30 69 1 23 63
M  V30 70 1 23 64
M  V30 71 1 24 65
M  V30 72 1 24 66
M  V30 73 1 24 67
M  V30 74 1 28 68
M  V30 75 1 29 69
M  V30 76 1 30 70
M  V30 77 1 30 71
M  V30 78 1 31 72
M  V30 79 1 31 73
M  V30 80 1 31 74
M  V30 81 1 32 75
M  V30 82 1 32 76
M  V30 83 1 32 77
M  V30 84 1 35 78
M  V30 85 1 36 79
M  V30 86 1 37 80
M  V30 87 1 37 81
M  V30 88 1 40 82
M  V30 89 1 42 83
M  V30 90 1 45 84
M  V30 91 1 45 85
M  V30 92 1 45 86
M  V30 END BOND
M  V30 END CTAB
M  END
>  <level_0>
5808

>  <index>
5808

>  <NO.>
5809

>  <Name>
tubocurarine

>  <SMILES>
COc1cc2c3cc1Oc1cc(ccc1O)CC1c4c(cc(OC)c(O)c4Oc4ccc(cc4)CC3N(C)CC2)CC[N+]1(C)C

>  <logBB>


>  <Class>
-1

>  <MW>
609.3

>  <nHBAcc>
7

>  <nHBDon>
2

>  <SLogP>
6.7

>  <TopoPSA>
80.62

>  <MMFF94 Energy>
224.12

$$$$
COc1ccc(-c2ccc3cc(C(=O)O)ccc3c2)cc1C12CC3CC(CC(C3)C1)C2
Actelion Java MolfileCreator 2.0

  0  0  0  0  0  0              0 V3000
M  V30 BEGIN CTAB
M  V30 COUNTS 59 64 0 0 0
M  V30 BEGIN ATOM
M  V30 1 O -8.6738 2.1833 -2.3452 0
M  V30 2 C -7.6521 2.8384 -2.4366 0
M  V30 3 O -7.6888 4.1502 -2.7303 0
M  V30 4 C -6.273 2.3277 -2.2496 0
M  V30 5 C -6.105 0.9728 -1.9367 0
M  V30 6 C -5.1525 3.1533 -2.3765 0
M  V30 7 C -4.8223 0.4332 -1.7487 0
M  V30 8 C -3.8718 2.6263 -2.1911 0
M  V30 9 C -3.6915 1.2698 -1.8764 0
M  V30 10 C -4.639 -0.9207 -1.4363 0
M  V30 11 C -2.4086 0.7265 -1.6869 0
M  V30 12 C -3.3556 -1.4435 -1.2525 0
M  V30 13 C -2.2203 -0.6306 -1.3735 0
M  V30 14 C -0.8696 -1.1812 -1.1782 0
M  V30 15 C 0.008 -0.6285 -0.227 0
M  V30 16 C -0.4199 -2.2655 -1.9309 0
M  V30 17 C 1.3169 -1.1198 -0.0052 0
M  V30 18 C 0.8633 -2.7789 -1.7426 0
M  V30 19 C 1.7324 -2.2217 -0.794 0
M  V30 20 C 2.2347 -0.4645 1.0607 0
M  V30 21 O 2.9997 -2.6976 -0.5818 0
M  V30 22 C 1.5625 0.7376 1.8114 0
M  V30 23 C 2.6284 -1.4943 2.1634 0
M  V30 24 C 3.5273 0.108 0.4026 0
M  V30 25 C 3.4465 -3.8064 -1.3494 0
M  V30 26 C 2.4981 1.3648 2.8594 0
M  V30 27 C 3.5809 -0.8713 3.1997 0
M  V30 28 C 4.4716 0.7164 1.4548 0
M  V30 29 C 2.8793 0.3011 3.8965 0
M  V30 30 C 3.7642 1.8785 2.1629 0
M  V30 31 C 4.8437 -0.3604 2.4871 0
M  V30 32 H -8.6455 4.3423 -2.8235 0
M  V30 33 H -6.9828 0.3354 -1.8396 0
M  V30 34 H -5.2624 4.2074 -2.6193 0
M  V30 35 H -3.0125 3.2859 -2.2947 0
M  V30 36 H -5.4953 -1.5834 -1.3297 0
M  V30 37 H -1.5355 1.3687 -1.7953 0
M  V30 38 H -3.2488 -2.4967 -0.9996 0
M  V30 39 H -0.3731 0.2061 0.3557 0
M  V30 40 H -1.0633 -2.7156 -2.6838 0
M  V30 41 H 1.1555 -3.6202 -2.362 0
M  V30 42 H 1.2706 1.5186 1.0964 0
M  V30 43 H 0.6471 0.406 2.3197 0
M  V30 44 H 1.7254 -1.8665 2.6661 0
M  V30 45 H 3.1224 -2.3757 1.7432 0
M  V30 46 H 3.2608 0.8706 -0.3416 0
M  V30 47 H 4.0846 -0.6602 -0.1417 0
M  V30 48 H 2.8323 -4.6925 -1.1589 0
M  V30 49 H 4.4686 -4.0384 -1.0352 0
M  V30 50 H 3.4753 -3.5624 -2.4162 0
M  V30 51 H 1.9883 2.1976 3.357 0
M  V30 52 H 3.8579 -1.627 3.9434 0
M  V30 53 H 5.3792 1.0846 0.9633 0
M  V30 54 H 1.9826 -0.0536 4.4191 0
M  V30 55 H 3.5392 0.7364 4.6569 0
M  V30 56 H 3.5045 2.6591 1.4375 0
M  V30 57 H 4.4374 2.3378 2.897 0
M  V30 58 H 5.3583 -1.193 1.9922 0
M  V30 59 H 5.5442 0.0544 3.2223 0
M  V30 END ATOM
M  V30 BEGIN BOND
M  V30 1 2 1 2
M  V30 2 1 2 3
M  V30 3 1 2 4
M  V30 4 2 4 5
M  V30 5 1 4 6
M  V30 6 1 5 7
M  V30 7 2 6 8
M  V30 8 1 7 9
M  V30 9 2 7 10
M  V30 10 2 9 11
M  V30 11 1 10 12
M  V30 12 1 11 13
M  V30 13 1 13 14
M  V30 14 2 14 15
M  V30 15 1 14 16
M  V30 16 1 15 17
M  V30 17 2 16 18
M  V30 18 2 17 19
M  V30 19 1 17 20
M  V30 20 1 19 21
M  V30 21 1 20 22
M  V30 22 1 20 23
M  V30 23 1 20 24
M  V30 24 1 21 25
M  V30 25 1 22 26
M  V30 26 1 23 27
M  V30 27 1 24 28
M  V30 28 1 26 29
M  V30 29 1 26 30
M  V30 30 1 27 31
M  V30 31 1 8 9
M  V30 32 2 12 13
M  V30 33 1 18 19
M  V30 34 1 27 29
M  V30 35 1 28 30
M  V30 36 1 28 31
M  V30 37 1 3 32
M  V30 38 1 5 33
M  V30 39 1 6 34
M  V30 40 1 8 35
M  V30 41 1 10 36
M  V30 42 1 11 37
M  V30 43 1 12 38
M  V30 44 1 15 39
M  V30 45 1 16 40
M  V30 46 1 18 41
M  V30 47 1 22 42
M  V30 48 1 22 43
M  V30 49 1 23 44
M  V30 50 1 23 45
M  V30 51 1 24 46
M  V30 52 1 24 47
M  V30 53 1 25 48
M  V30 54 1 25 49
M  V30 55 1 25 50
M  V30 56 1 26 51
M  V30 57 1 27 52
M  V30 58 1 28 53
M  V30 59 1 29 54
M  V30 60 1 29 55
M  V30 61 1 30 56
M  V30 62 1 30 57
M  V30 63 1 31 58
M  V30 64 1 31 59
M  V30 END BOND
M  V30 END CTAB
M  END
>  <level_0>
5810

>  <index>
5810

>  <NO.>
5811

>  <Name>
adapalene

>  <SMILES>
COc1ccc(-c2ccc3cc(C(=O)O)ccc3c2)cc1C12CC3CC(CC(C3)C1)C2

>  <logBB>


>  <Class>
-1

>  <MW>
412.2

>  <nHBAcc>
2

>  <nHBDon>
1

>  <SLogP>
6.68

>  <TopoPSA>
46.53

>  <MMFF94 Energy>
86.406

$$$$
COc1ccc2cc1Oc1cc3c(cc1OC)CC[N+](C)(C)C3Cc1ccc(cc1)Oc1c(OC)c(OC)cc3c1C(C2)[N+](C)(C)CC3
Actelion Java MolfileCreator 2.0

  0  0  0  0  0  0              0 V3000
M  V30 BEGIN CTAB
M  V30 COUNTS 96 102 0 0 0
M  V30 BEGIN ATOM
M  V30 1 O 2.0806 -0.1599 3.042 0
M  V30 2 C 0.9855 0.3724 3.7023 0
M  V30 3 C 2.1463 0.0623 1.6822 0
M  V30 4 C 1.1934 0.9431 4.9589 0
M  V30 5 C -0.3059 0.3136 3.1527 0
M  V30 6 C 2.3055 1.3359 1.1286 0
M  V30 7 C 2.0691 -1.0673 0.8604 0
M  V30 8 O 2.4725 0.9013 5.4403 0
M  V30 9 C 0.1029 1.5167 5.6124 0
M  V30 10 C -1.4195 0.8785 3.798 0
M  V30 11 O 2.4018 2.3919 1.9913 0
M  V30 12 C 2.3007 1.457 -0.2607 0
M  V30 13 C 2.0614 -0.956 -0.5428 0
M  V30 14 C 2.7321 1.5203 6.6932 0
M  V30 15 C -1.1849 1.5213 5.0291 0
M  V30 16 C -2.7993 0.8829 3.1212 0
M  V30 17 C 3.0667 3.5525 1.506 0
M  V30 18 C 2.1625 0.3268 -1.0836 0
M  V30 19 C 1.8281 -2.2368 -1.3137 0
M  V30 20 C -2.2888 2.2101 5.7843 0
M  V30 21 N -3.9683 1.3475 4.0905 0 CHG=1
M  V30 22 C -3.1924 -0.4686 2.4302 0
M  V30 23 C 1.8495 -2.3769 -2.8716 0
M  V30 24 C -3.4717 2.5631 4.8953 0
M  V30 25 C -5.1795 1.8295 3.2802 0
M  V30 26 C -4.4215 0.2345 5.0348 0
M  V30 27 C -2.6176 -0.8237 1.0695 0
M  V30 28 N 3.3014 -2.5803 -3.4757 0 CHG=1
M  V30 29 C 0.9939 -1.3795 -3.654 0
M  V30 30 C -2.5976 -2.178 0.6959 0
M  V30 31 C -2.1529 0.1189 0.1445 0
M  V30 32 C 3.9053 -1.2287 -3.8405 0
M  V30 33 C 4.27 -3.2873 -2.5244 0
M  V30 34 C 3.1977 -3.4816 -4.7223 0
M  V30 35 C -0.408 -1.3262 -3.4872 0
M  V30 36 C 1.5759 -0.5038 -4.5975 0
M  V30 37 C -2.0843 -2.5783 -0.541 0
M  V30 38 C -1.6114 -0.2865 -1.0842 0
M  V30 39 C 3.0609 -0.4806 -4.8657 0
M  V30 40 O -1.0113 -2.172 -2.5812 0
M  V30 41 C -1.2049 -0.5068 -4.3083 0
M  V30 42 C 0.7667 0.3607 -5.3662 0
M  V30 43 C -1.5697 -1.6373 -1.4328 0
M  V30 44 O -2.5687 -0.5189 -4.1309 0
M  V30 45 C -0.6206 0.3683 -5.2298 0
M  V30 46 C -3.1987 -1.3162 -5.1345 0
M  V30 47 O -1.4749 1.1775 -5.9263 0
M  V30 48 C -0.923 2.0598 -6.8953 0
M  V30 49 H -0.4091 -0.1752 2.1923 0
M  V30 50 H 1.9624 -2.0406 1.3384 0
M  V30 51 H 0.233 1.9903 6.5826 0
M  V30 52 H 2.3679 2.4315 -0.7368 0
M  V30 53 H 2.5149 2.5928 6.6556 0
M  V30 54 H 3.7981 1.4034 6.91 0
M  V30 55 H 2.1726 1.0312 7.4973 0
M  V30 56 H -2.7603 1.6857 2.376 0
M  V30 57 H 4.02 3.3018 1.0285 0
M  V30 58 H 3.281 4.1977 2.3633 0
M  V30 59 H 2.4195 4.1108 0.8224 0
M  V30 60 H 2.1124 0.5141 -2.1478 0
M  V30 61 H 0.8405 -2.5799 -0.9889 0
M  V30 62 H 2.4856 -2.9972 -0.8778 0
M  V30 63 H -1.9084 3.1405 6.2242 0
M  V30 64 H -2.605 1.57 6.616 0
M  V30 65 H -2.9441 -1.2828 3.1254 0
M  V30 66 H -4.2745 -0.5151 2.2756 0
M  V30 67 H 1.3912 -3.3596 -3.0569 0
M  V30 68 H -4.3093 2.9313 5.4994 0
M  V30 69 H -3.1993 3.3375 4.167 0
M  V30 70 H -4.8472 2.6075 2.587 0
M  V30 71 H -5.6138 0.9897 2.7355 0
M  V30 72 H -5.9197 2.2326 3.9786 0
M  V30 73 H -4.9836 -0.5091 4.464 0
M  V30 74 H -3.5461 -0.231 5.493 0
M  V30 75 H -5.07 0.675 5.7981 0
M  V30 76 H -2.9826 -2.9441 1.3682 0
M  V30 77 H -2.174 1.1862 0.3463 0
M  V30 78 H 4.0043 -0.6578 -2.913 0
M  V30 79 H 4.9139 -1.4034 -4.2342 0
M  V30 80 H 3.8148 -4.2277 -2.2009 0
M  V30 81 H 5.1995 -3.4891 -3.0666 0
M  V30 82 H 4.4842 -2.6292 -1.678 0
M  V30 83 H 2.9017 -4.4831 -4.3952 0
M  V30 84 H 4.1786 -3.5136 -5.2056 0
M  V30 85 H 2.4473 -3.0801 -5.4065 0
M  V30 86 H -2.0785 -3.6346 -0.8005 0
M  V30 87 H -1.2371 0.4846 -1.7513 0
M  V30 88 H 3.2358 -0.9027 -5.8631 0
M  V30 89 H 3.4081 0.5597 -4.8967 0
M  V30 90 H 1.2507 1.0199 -6.0837 0
M  V30 91 H -3.1107 -0.8587 -6.1249 0
M  V30 92 H -4.2624 -1.3835 -4.8875 0
M  V30 93 H -2.7897 -2.3327 -5.1479 0
M  V30 94 H -0.2552 2.7899 -6.4266 0
M  V30 95 H -1.749 2.6102 -7.3557 0
M  V30 96 H -0.4095 1.5041 -7.6865 0
M  V30 END ATOM
M  V30 BEGIN BOND
M  V30 1 1 1 2
M  V30 2 1 1 3
M  V30 3 2 2 4
M  V30 4 1 2 5
M  V30 5 2 3 6
M  V30 6 1 3 7
M  V30 7 1 4 8
M  V30 8 1 4 9
M  V30 9 2 5 10
M  V30 10 1 6 11
M  V30 11 1 6 12
M  V30 12 2 7 13
M  V30 13 1 8 14
M  V30 14 2 9 15
M  V30 15 1 10 16
M  V30 16 1 11 17
M  V30 17 2 12 18
M  V30 18 1 13 19
M  V30 19 1 15 20
M  V30 20 1 16 21
M  V30 21 1 16 22
M  V30 22 1 19 23
M  V30 23 1 20 24
M  V30 24 1 21 25
M  V30 25 1 21 26
M  V30 26 1 22 27
M  V30 27 1 23 28
M  V30 28 1 23 29
M  V30 29 2 27 30
M  V30 30 1 27 31
M  V30 31 1 28 32
M  V30 32 1 28 33
M  V30 33 1 28 34
M  V30 34 2 29 35
M  V30 35 1 29 36
M  V30 36 1 30 37
M  V30 37 2 31 38
M  V30 38 1 32 39
M  V30 39 1 35 40
M  V30 40 1 35 41
M  V30 41 2 36 42
M  V30 42 2 37 43
M  V30 43 1 41 44
M  V30 44 2 41 45
M  V30 45 1 44 46
M  V30 46 1 45 47
M  V30 47 1 47 48
M  V30 48 1 10 15
M  V30 49 1 13 18
M  V30 50 1 21 24
M  V30 51 1 36 39
M  V30 52 1 38 43
M  V30 53 1 40 43
M  V30 54 1 42 45
M  V30 55 1 5 49
M  V30 56 1 7 50
M  V30 57 1 9 51
M  V30 58 1 12 52
M  V30 59 1 14 53
M  V30 60 1 14 54
M  V30 61 1 14 55
M  V30 62 1 16 56
M  V30 63 1 17 57
M  V30 64 1 17 58
M  V30 65 1 17 59
M  V30 66 1 18 60
M  V30 67 1 19 61
M  V30 68 1 19 62
M  V30 69 1 20 63
M  V30 70 1 20 64
M  V30 71 1 22 65
M  V30 72 1 22 66
M  V30 73 1 23 67
M  V30 74 1 24 68
M  V30 75 1 24 69
M  V30 76 1 25 70
M  V30 77 1 25 71
M  V30 78 1 25 72
M  V30 79 1 26 73
M  V30 80 1 26 74
M  V30 81 1 26 75
M  V30 82 1 30 76
M  V30 83 1 31 77
M  V30 84 1 32 78
M  V30 85 1 32 79
M  V30 86 1 33 80
M  V30 87 1 33 81
M  V30 88 1 33 82
M  V30 89 1 34 83
M  V30 90 1 34 84
M  V30 91 1 34 85
M  V30 92 1 37 86
M  V30 93 1 38 87
M  V30 94 1 39 88
M  V30 95 1 39 89
M  V30 96 1 42 90
M  V30 97 1 46 91
M  V30 98 1 46 92
M  V30 99 1 46 93
M  V30 100 1 48 94
M  V30 101 1 48 95
M  V30 102 1 48 96
M  V30 END BOND
M  V30 END CTAB
M  END
>  <level_0>
5819

>  <index>
5819

>  <NO.>
5820

>  <Name>
ncgc00181151-01

>  <SMILES>
COc1ccc2cc1Oc1cc3c(cc1OC)CC[N+](C)(C)C3Cc1ccc(cc1)Oc1c(OC)c(OC)cc3c1C(C2)[N+](C)(C)CC3

>  <logBB>


>  <Class>
-1

>  <MW>
652.35

>  <nHBAcc>
6

>  <nHBDon>
0

>  <SLogP>
7.45

>  <TopoPSA>
55.38

>  <MMFF94 Energy>
297.49

$$$$
COc1cccc(N2CCN(C3=Nc4c(F)cccc4[C@H](CC(=O)O)N3c3cc(C(F)(F)F)ccc3OC)CC2)c1
Actelion Java MolfileCreator 2.0

  0  0  0  0  0  0              0 V3000
M  V30 BEGIN CTAB
M  V30 COUNTS 69 73 0 0 0
M  V30 BEGIN ATOM
M  V30 1 F 4.8399 2.0951 1.6919 0
M  V30 2 C 4.9993 0.772 1.5266 0
M  V30 3 C 3.9739 0.0014 0.9676 0
M  V30 4 C 6.2034 0.1969 1.9274 0
M  V30 5 N 2.7749 0.6121 0.5663 0
M  V30 6 C 4.1784 -1.3758 0.8109 0
M  V30 7 C 6.4018 -1.1722 1.77 0
M  V30 8 C 1.7385 -0.1413 0.3098 0
M  V30 9 C 5.3935 -1.9586 1.2117 0
M  V30 10 C 3.0785 -2.1979 0.1801 0 CFG=1
M  V30 11 N 1.7759 -1.5276 0.3315 0
M  V30 12 N 0.5499 0.4623 -0.0651 0
M  V30 13 C 3.3574 -2.5481 -1.2846 0
M  V30 14 C 0.8113 -2.3128 1.0176 0
M  V30 15 C 0.3846 1.9148 0.1238 0
M  V30 16 C -0.4982 -0.1989 -0.8518 0
M  V30 17 C 3.6098 -1.3543 -2.155 0
M  V30 18 C 0.4123 -2.0332 2.3388 0
M  V30 19 C 0.2242 -3.4136 0.3682 0
M  V30 20 C -1.0945 2.3494 0.0997 0
M  V30 21 C -1.1993 0.7641 -1.834 0
M  V30 22 O 4.6968 -0.8464 -2.3753 0
M  V30 23 O 2.4955 -0.8726 -2.737 0
M  V30 24 O 1.0611 -1.0432 3.0323 0
M  V30 25 C -0.5367 -2.8315 2.9851 0
M  V30 26 C -0.7412 -4.2148 1.003 0
M  V30 27 N -1.7712 1.9286 -1.1397 0
M  V30 28 C 0.1666 -0.0349 3.496 0
M  V30 29 C -1.12 -3.9077 2.3161 0
M  V30 30 C -1.3718 -5.3652 0.2587 0
M  V30 31 C -2.8768 2.6045 -1.6266 0
M  V30 32 F -2.3086 -4.9485 -0.6363 0
M  V30 33 F -0.4635 -6.0843 -0.4582 0
M  V30 34 F -1.9979 -6.2605 1.071 0
M  V30 35 C -3.6801 3.4077 -0.799 0
M  V30 36 C -3.258 2.5269 -2.9742 0
M  V30 37 C -4.8039 4.0996 -1.2757 0
M  V30 38 C -4.3747 3.2108 -3.4674 0
M  V30 39 O -5.4702 4.8287 -0.3275 0
M  V30 40 C -5.149 3.9976 -2.6186 0
M  V30 41 C -6.6111 5.5575 -0.7622 0
M  V30 42 H 6.9763 0.826 2.3567 0
M  V30 43 H 7.3409 -1.6243 2.0784 0
M  V30 44 H 5.5609 -3.0263 1.0897 0
M  V30 45 H 3.0613 -3.1498 0.7321 0
M  V30 46 H 2.5371 -3.1291 -1.7209 0
M  V30 47 H 4.2455 -3.1885 -1.3612 0
M  V30 48 H 0.9333 2.4383 -0.6689 0
M  V30 49 H 0.8105 2.2228 1.0863 0
M  V30 50 H -1.2444 -0.6157 -0.165 0
M  V30 51 H -0.0824 -1.0208 -1.4442 0
M  V30 52 H 0.5006 -3.6373 -0.6606 0
M  V30 53 H -1.1155 3.4411 0.2027 0
M  V30 54 H -1.621 1.9147 0.958 0
M  V30 55 H -0.484 1.1122 -2.589 0
M  V30 56 H -1.9822 0.1905 -2.3447 0
M  V30 57 H 2.8057 -0.0476 -3.1684 0
M  V30 58 H -0.8064 -2.6359 4.0193 0
M  V30 59 H -0.6106 0.2008 2.7603 0
M  V30 60 H 0.7493 0.8736 3.6749 0
M  V30 61 H -0.2882 -0.3366 4.4447 0
M  V30 62 H -1.8617 -4.5159 2.8326 0
M  V30 63 H -3.4557 3.4963 0.2604 0
M  V30 64 H -2.6725 1.9462 -3.6811 0
M  V30 65 H -4.6336 3.1306 -4.5199 0
M  V30 66 H -6.0066 4.5133 -3.0351 0
M  V30 67 H -6.3384 6.3091 -1.5104 0
M  V30 68 H -7.021 6.085 0.1045 0
M  V30 69 H -7.3883 4.8854 -1.1406 0
M  V30 END ATOM
M  V30 BEGIN BOND
M  V30 1 1 1 2
M  V30 2 2 2 3
M  V30 3 1 2 4
M  V30 4 1 3 5
M  V30 5 1 3 6
M  V30 6 2 4 7
M  V30 7 2 5 8
M  V30 8 2 6 9
M  V30 9 1 6 10
M  V30 10 1 8 11
M  V30 11 1 8 12
M  V30 12 1 10 13
M  V30 13 1 11 14
M  V30 14 1 12 15
M  V30 15 1 12 16
M  V30 16 1 13 17
M  V30 17 2 14 18
M  V30 18 1 14 19
M  V30 19 1 15 20
M  V30 20 1 16 21
M  V30 21 2 17 22
M  V30 22 1 17 23
M  V30 23 1 18 24
M  V30 24 1 18 25
M  V30 25 2 19 26
M  V30 26 1 20 27
M  V30 27 1 24 28
M  V30 28 2 25 29
M  V30 29 1 26 30
M  V30 30 1 27 31
M  V30 31 1 30 32
M  V30 32 1 30 33
M  V30 33 1 30 34
M  V30 34 2 31 35
M  V30 35 1 31 36
M  V30 36 1 35 37
M  V30 37 2 36 38
M  V30 38 1 37 39
M  V30 39 2 37 40
M  V30 40 1 39 41
M  V30 41 1 7 9
M  V30 42 1 10 11
M  V30 43 1 21 27
M  V30 44 1 26 29
M  V30 45 1 38 40
M  V30 46 1 4 42
M  V30 47 1 7 43
M  V30 48 1 9 44
M  V30 49 1 10 45
M  V30 50 1 13 46
M  V30 51 1 13 47
M  V30 52 1 15 48
M  V30 53 1 15 49
M  V30 54 1 16 50
M  V30 55 1 16 51
M  V30 56 1 19 52
M  V30 57 1 20 53
M  V30 58 1 20 54
M  V30 59 1 21 55
M  V30 60 1 21 56
M  V30 61 1 23 57
M  V30 62 1 25 58
M  V30 63 1 28 59
M  V30 64 1 28 60
M  V30 65 1 28 61
M  V30 66 1 29 62
M  V30 67 1 35 63
M  V30 68 1 36 64
M  V30 69 1 38 65
M  V30 70 1 40 66
M  V30 71 1 41 67
M  V30 72 1 41 68
M  V30 73 1 41 69
M  V30 END BOND
M  V30 BEGIN COLLECTION
M  V30 MDLV30/STEABS ATOMS=(1 10)
M  V30 END COLLECTION
M  V30 END CTAB
M  END
>  <level_0>
5821

>  <index>
5821

>  <NO.>
5822

>  <Name>
letermovir

>  <SMILES>
COc1cccc(N2CCN(C3=Nc4c(F)cccc4[C@H](CC(=O)O)N3c3cc(C(F)(F)F)ccc3OC)CC2)c1

>  <logBB>


>  <Class>
-1

>  <MW>
572.2

>  <nHBAcc>
7

>  <nHBDon>
1

>  <SLogP>
5.71

>  <TopoPSA>
77.84

>  <MMFF94 Energy>
84.144

$$$$
COc1nc(N)nc2c1ncn2[C@@H]1O[C@H](CO)[C@@H](O)[C@@H]1O
Actelion Java MolfileCreator 2.0

  0  0  0  0  0  0              0 V3000
M  V30 BEGIN CTAB
M  V30 COUNTS 36 38 0 0 0
M  V30 BEGIN ATOM
M  V30 1 O -0.5573 1.4335 -1.5929 0
M  V30 2 C -0.1934 0.0855 -1.9519 0 CFG=1
M  V30 3 C -1.9672 1.5829 -1.8793 0 CFG=1
M  V30 4 N 0.9551 -0.3286 -1.1818 0
M  V30 5 C -1.4723 -0.7576 -1.8338 0 CFG=2
M  V30 6 C -2.4816 0.2297 -2.4026 0 CFG=2
M  V30 7 C -2.6821 2.0557 -0.6133 0
M  V30 8 C 1.079 -0.3708 0.1796 0
M  V30 9 C 2.16 -0.7127 -1.7111 0
M  V30 10 O -1.8904 -1.1133 -0.5129 0
M  V30 11 O -2.3933 0.1942 -3.8343 0
M  V30 12 O -4.056 2.3009 -0.8888 0
M  V30 13 N 0.1367 -0.0925 1.0973 0
M  V30 14 C 2.3792 -0.7837 0.414 0
M  V30 15 N 3.04 -1.0 -0.7761 0
M  V30 16 C 0.5951 -0.2333 2.3524 0
M  V30 17 C 2.7417 -0.899 1.7568 0
M  V30 18 N 1.8276 -0.6146 2.7213 0
M  V30 19 N -0.2869 0.0245 3.361 0
M  V30 20 O 4.017 -1.3034 2.1019 0
M  V30 21 C 4.2241 -1.3629 3.5073 0
M  V30 22 H 0.1224 0.1247 -3.0031 0
M  V30 23 H -2.0684 2.3501 -2.6562 0
M  V30 24 H -1.39 -1.6791 -2.4183 0
M  V30 25 H -3.5153 0.0123 -2.1168 0
M  V30 26 H -2.6049 1.3219 0.1944 0
M  V30 27 H -2.2255 2.9833 -0.2512 0
M  V30 28 H 2.3451 -0.7604 -2.7773 0
M  V30 29 H -1.3096 -0.675 0.1437 0
M  V30 30 H -3.1159 0.7564 -4.1715 0
M  V30 31 H -4.4575 2.6173 -0.0597 0
M  V30 32 H -1.2281 0.2863 3.1317 0
M  V30 33 H 0.0384 -0.0966 4.3047 0
M  V30 34 H 5.255 -1.6867 3.6795 0
M  V30 35 H 4.1039 -0.3765 3.9688 0
M  V30 36 H 3.5616 -2.099 3.9756 0
M  V30 END ATOM
M  V30 BEGIN BOND
M  V30 1 1 1 2
M  V30 2 1 1 3
M  V30 3 1 2 4
M  V30 4 1 2 5
M  V30 5 1 3 6
M  V30 6 1 3 7
M  V30 7 1 4 8
M  V30 8 1 4 9
M  V30 9 1 5 10
M  V30 10 1 6 11
M  V30 11 1 7 12
M  V30 12 2 8 13
M  V30 13 1 8 14
M  V30 14 2 9 15
M  V30 15 1 13 16
M  V30 16 2 14 17
M  V30 17 2 16 18
M  V30 18 1 16 19
M  V30 19 1 17 20
M  V30 20 1 20 21
M  V30 21 1 5 6
M  V30 22 1 14 15
M  V30 23 1 17 18
M  V30 24 1 2 22
M  V30 25 1 3 23
M  V30 26 1 5 24
M  V30 27 1 6 25
M  V30 28 1 7 26
M  V30 29 1 7 27
M  V30 30 1 9 28
M  V30 31 1 10 29
M  V30 32 1 11 30
M  V30 33 1 12 31
M  V30 34 1 19 32
M  V30 35 1 19 33
M  V30 36 1 21 34
M  V30 37 1 21 35
M  V30 38 1 21 36
M  V30 END BOND
M  V30 BEGIN COLLECTION
M  V30 MDLV30/STEABS ATOMS=(4 2 3 5 6)
M  V30 END COLLECTION
M  V30 END CTAB
M  END
>  <level_0>
5824

>  <index>
5824

>  <NO.>
5825

>  <Name>
nelarabine

>  <SMILES>
COc1nc(N)nc2c1ncn2[C@@H]1O[C@H](CO)[C@@H](O)[C@@H]1O

>  <logBB>


>  <Class>
-1

>  <MW>
297.11

>  <nHBAcc>
9

>  <nHBDon>
4

>  <SLogP>
-1.97

>  <TopoPSA>
148.77

>  <MMFF94 Energy>
28.588

$$$$
CS(=O)(=O)CCNCc1ccc(-c2ccc3ncnc(Nc4ccc(OCc5cccc(F)c5)c(Cl)c4)c3c2)o1
Actelion Java MolfileCreator 2.0

  0  0  0  0  0  0              0 V3000
M  V30 BEGIN CTAB
M  V30 COUNTS 66 70 0 0 0
M  V30 BEGIN ATOM
M  V30 1 Cl -2.1166 -3.1762 0.895 0
M  V30 2 C -0.9624 -2.3152 1.856 0
M  V30 3 C -0.9834 -2.3826 3.2555 0
M  V30 4 C -0.0019 -1.547 1.187 0
M  V30 5 O -1.9605 -3.1546 3.8238 0
M  V30 6 C -0.0298 -1.6544 3.9673 0
M  V30 7 C 0.9698 -0.8296 1.8952 0
M  V30 8 C -1.9103 -3.3608 5.2343 0
M  V30 9 C 0.9289 -0.8854 3.2913 0
M  V30 10 N 1.8944 -0.0482 1.1821 0
M  V30 11 C -2.9887 -4.3416 5.6335 0
M  V30 12 C 3.1053 0.5578 1.5888 0
M  V30 13 C -3.2025 -5.5139 4.8934 0
M  V30 14 C -3.7604 -4.1214 6.7863 0
M  V30 15 N 3.7577 0.0553 2.653 0
M  V30 16 C 3.5953 1.6693 0.871 0
M  V30 17 C -4.1766 -6.4229 5.2928 0
M  V30 18 C -4.7368 -5.0421 7.1784 0
M  V30 19 C 4.9165 0.633 2.9788 0
M  V30 20 C 4.8217 2.1781 1.315 0
M  V30 21 C 2.9436 2.2929 -0.2293 0
M  V30 22 F -4.3735 -7.5369 4.5754 0
M  V30 23 C -4.9459 -6.1968 6.4275 0
M  V30 24 N 5.4855 1.6684 2.3547 0
M  V30 25 C 5.3721 3.2621 0.6463 0
M  V30 26 C 3.5039 3.3885 -0.8998 0
M  V30 27 C 4.7351 3.8631 -0.4465 0
M  V30 28 C 2.8262 4.0186 -2.0303 0
M  V30 29 O 1.6165 3.4862 -2.3857 0
M  V30 30 C 3.1236 5.074 -2.8713 0
M  V30 31 C 1.1426 4.2081 -3.4418 0
M  V30 32 C 2.0435 5.194 -3.7793 0
M  V30 33 C -0.1773 3.7992 -3.9901 0
M  V30 34 N 0.0085 2.8113 -5.0569 0
M  V30 35 C -1.2812 2.3299 -5.5607 0
M  V30 36 C -1.0666 1.3864 -6.7343 0
M  V30 37 S -2.6039 0.7248 -7.3552 0
M  V30 38 O -3.58 1.7953 -7.4163 0
M  V30 39 O -2.294 -0.0597 -8.5354 0
M  V30 40 C -3.1259 -0.4153 -6.095 0
M  V30 41 H -0.0166 -1.5171 0.1011 0
M  V30 42 H 5.0E-4 -1.6475 5.0519 0
M  V30 43 H -2.0783 -2.4048 5.7447 0
M  V30 44 H -0.9418 -3.7801 5.5332 0
M  V30 45 H 1.643 -0.3196 3.8849 0
M  V30 46 H 1.8307 -0.1356 0.1766 0
M  V30 47 H -2.6202 -5.7241 4.0003 0
M  V30 48 H -3.6095 -3.2268 7.3875 0
M  V30 49 H -5.3326 -4.8579 8.0689 0
M  V30 50 H 5.4475 0.2211 3.8301 0
M  V30 51 H 1.9725 1.925 -0.5531 0
M  V30 52 H -5.6997 -6.9209 6.7183 0
M  V30 53 H 6.3277 3.6577 0.9856 0
M  V30 54 H 5.2198 4.7106 -0.925 0
M  V30 55 H 4.0125 5.6876 -2.8404 0
M  V30 56 H 1.9325 5.9071 -4.5845 0
M  V30 57 H -0.6936 4.6836 -4.3814 0
M  V30 58 H -0.7914 3.3832 -3.1821 0
M  V30 59 H 0.5602 2.0401 -4.68 0
M  V30 60 H -1.8922 3.1804 -5.8854 0
M  V30 61 H -1.8239 1.8218 -4.7563 0
M  V30 62 H -0.5948 1.9129 -7.5714 0
M  V30 63 H -0.4323 0.5347 -6.4671 0
M  V30 64 H -2.3305 -1.1432 -5.9263 0
M  V30 65 H -4.0247 -0.9233 -6.4514 0
M  V30 66 H -3.3525 0.1337 -5.1805 0
M  V30 END ATOM
M  V30 BEGIN BOND
M  V30 1 1 1 2
M  V30 2 2 2 3
M  V30 3 1 2 4
M  V30 4 1 3 5
M  V30 5 1 3 6
M  V30 6 2 4 7
M  V30 7 1 5 8
M  V30 8 2 6 9
M  V30 9 1 7 10
M  V30 10 1 8 11
M  V30 11 1 10 12
M  V30 12 2 11 13
M  V30 13 1 11 14
M  V30 14 2 12 15
M  V30 15 1 12 16
M  V30 16 1 13 17
M  V30 17 2 14 18
M  V30 18 1 15 19
M  V30 19 1 16 20
M  V30 20 2 16 21
M  V30 21 1 17 22
M  V30 22 2 17 23
M  V30 23 2 19 24
M  V30 24 2 20 25
M  V30 25 1 21 26
M  V30 26 1 25 27
M  V30 27 1 26 28
M  V30 28 1 28 29
M  V30 29 2 28 30
M  V30 30 1 29 31
M  V30 31 1 30 32
M  V30 32 1 31 33
M  V30 33 1 33 34
M  V30 34 1 34 35
M  V30 35 1 35 36
M  V30 36 1 36 37
M  V30 37 2 37 38
M  V30 38 2 37 39
M  V30 39 1 37 40
M  V30 40 1 7 9
M  V30 41 1 18 23
M  V30 42 1 20 24
M  V30 43 2 26 27
M  V30 44 2 31 32
M  V30 45 1 4 41
M  V30 46 1 6 42
M  V30 47 1 8 43
M  V30 48 1 8 44
M  V30 49 1 9 45
M  V30 50 1 10 46
M  V30 51 1 13 47
M  V30 52 1 14 48
M  V30 53 1 18 49
M  V30 54 1 19 50
M  V30 55 1 21 51
M  V30 56 1 23 52
M  V30 57 1 25 53
M  V30 58 1 27 54
M  V30 59 1 30 55
M  V30 60 1 32 56
M  V30 61 1 33 57
M  V30 62 1 33 58
M  V30 63 1 34 59
M  V30 64 1 35 60
M  V30 65 1 35 61
M  V30 66 1 36 62
M  V30 67 1 36 63
M  V30 68 1 40 64
M  V30 69 1 40 65
M  V30 70 1 40 66
M  V30 END BOND
M  V30 END CTAB
M  END
>  <level_0>
5827

>  <index>
5827

>  <NO.>
5828

>  <Name>
lapatinib

>  <SMILES>
CS(=O)(=O)CCNCc1ccc(-c2ccc3ncnc(Nc4ccc(OCc5cccc(F)c5)c(Cl)c4)c3c2)o1

>  <logBB>


>  <Class>
-1

>  <MW>
580.13

>  <nHBAcc>
8

>  <nHBDon>
2

>  <SLogP>
6.14

>  <TopoPSA>
106.35

>  <MMFF94 Energy>
49.632

$$$$
CSCCC(NC(=O)C(Cc1c[nH]c2ccccc12)NC(=O)CCNC(=O)OC(C)(C)C)C(=O)NC(CC(=O)O)C(=O)NC(Cc1ccccc1)C(N)=O
Actelion Java MolfileCreator 2.0

  0  0  0  0  0  0              0 V3000
M  V30 BEGIN CTAB
M  V30 COUNTS 103 105 0 0 0
M  V30 BEGIN ATOM
M  V30 1 S 3.1716 1.4262 -3.1716 0
M  V30 2 C 2.1255 0.6699 -1.8812 0
M  V30 3 C 4.5383 2.0284 -2.1478 0
M  V30 4 C 2.7317 -0.6213 -1.3286 0
M  V30 5 C 1.8495 -1.29 -0.262 0
M  V30 6 N 0.551 -1.6906 -0.7747 0
M  V30 7 C 1.6232 -0.3546 0.9403 0
M  V30 8 C 0.3573 -2.8055 -1.5521 0
M  V30 9 O 0.5432 0.1939 1.1598 0
M  V30 10 N 2.7279 -0.1408 1.725 0
M  V30 11 O 1.2885 -3.509 -1.9374 0
M  V30 12 C -1.1018 -3.0597 -1.9774 0
M  V30 13 C 2.7085 0.7689 2.8713 0
M  V30 14 N -2.0585 -2.166 -1.3056 0
M  V30 15 C -1.1848 -2.9251 -3.5096 0
M  V30 16 C 4.1759 1.1798 3.1121 0
M  V30 17 C 2.1207 0.0881 4.1067 0
M  V30 18 C -2.5724 -2.4518 -0.0635 0
M  V30 19 C -2.5902 -3.0379 -4.0248 0
M  V30 20 O 5.1135 0.5552 2.6162 0
M  V30 21 N 4.3531 2.2832 3.9118 0
M  V30 22 C 1.6166 1.1112 5.0825 0
M  V30 23 O -2.1408 -3.3384 0.6631 0
M  V30 24 C -3.7541 -1.5935 0.309 0
M  V30 25 C -3.3791 -4.2281 -4.125 0
M  V30 26 C -3.387 -1.9919 -4.4492 0
M  V30 27 C 5.6901 2.7728 4.2789 0
M  V30 28 O 1.8887 2.3026 5.0885 0
M  V30 29 O 0.836 0.5711 6.0344 0
M  V30 30 C -5.0174 -2.2209 -0.2652 0
M  V30 31 C -4.6436 -3.8536 -4.5811 0
M  V30 32 C -3.1404 -5.5901 -3.8499 0
M  V30 33 N -4.6222 -2.491 -4.7627 0
M  V30 34 C 5.5469 3.792 5.4248 0
M  V30 35 C 6.3958 3.4391 3.0835 0
M  V30 36 N -6.1288 -1.2962 -0.2681 0
M  V30 37 C -5.6813 -4.7724 -4.7777 0
M  V30 38 C -4.1664 -6.5223 -4.0431 0
M  V30 39 O 6.369 3.9294 6.3252 0
M  V30 40 N 4.5005 4.6705 5.3265 0
M  V30 41 C 7.9004 3.346 3.1719 0
M  V30 42 C -6.2962 -0.3603 -1.2433 0
M  V30 43 C -5.4177 -6.1166 -4.5003 0
M  V30 44 C 8.6497 4.363 3.7762 0
M  V30 45 C 8.5634 2.2173 2.6697 0
M  V30 46 O -5.5296 -0.1832 -2.1773 0
M  V30 47 O -7.4335 0.3262 -0.9971 0
M  V30 48 C 10.0386 4.2581 3.8647 0
M  V30 49 C 9.952 2.1155 2.7582 0
M  V30 50 C -7.8615 1.3926 -1.8826 0
M  V30 51 C 10.6895 3.1366 3.3541 0
M  V30 52 C -6.847 2.5413 -1.9015 0
M  V30 53 C -9.1733 1.9064 -1.2698 0
M  V30 54 C -8.1534 0.8631 -3.2911 0
M  V30 55 H 1.1543 0.4624 -2.342 0
M  V30 56 H 1.9603 1.4113 -1.0935 0
M  V30 57 H 5.2004 2.6418 -2.7647 0
M  V30 58 H 5.1208 1.1953 -1.7483 0
M  V30 59 H 4.1616 2.645 -1.3276 0
M  V30 60 H 2.8978 -1.3268 -2.1522 0
M  V30 61 H 3.7133 -0.4138 -0.8877 0
M  V30 62 H 2.3541 -2.1929 0.1039 0
M  V30 63 H -0.2707 -1.2058 -0.4225 0
M  V30 64 H 3.6174 -0.5877 1.5097 0
M  V30 65 H -1.3449 -4.0864 -1.6766 0
M  V30 66 H 2.1373 1.6597 2.5825 0
M  V30 67 H -2.5094 -1.4513 -1.8687 0
M  V30 68 H -0.5589 -3.6884 -3.9888 0
M  V30 69 H -0.7691 -1.9557 -3.8171 0
M  V30 70 H 1.2698 -0.5415 3.822 0
M  V30 71 H 2.8647 -0.5386 4.6105 0
M  V30 72 H 3.5458 2.6635 4.407 0
M  V30 73 H -3.5984 -0.5784 -0.0746 0
M  V30 74 H -3.8163 -1.5143 1.3999 0
M  V30 75 H -3.1945 -0.9298 -4.5281 0
M  V30 76 H 6.2508 1.9093 4.6566 0
M  V30 77 H 0.5729 1.31 6.6222 0
M  V30 78 H -4.8597 -2.5676 -1.2931 0
M  V30 79 H -5.3146 -3.0909 0.3304 0
M  V30 80 H -2.1697 -5.9203 -3.4919 0
M  V30 81 H -5.4116 -1.9376 -5.066 0
M  V30 82 H 6.0871 2.9784 2.1364 0
M  V30 83 H 6.1033 4.4933 2.9892 0
M  V30 84 H -6.8426 -1.3396 0.446 0
M  V30 85 H -6.6574 -4.4588 -5.1327 0
M  V30 86 H -3.9817 -7.5728 -3.833 0
M  V30 87 H 4.4096 5.3711 6.0513 0
M  V30 88 H 3.853 4.6893 4.5516 0
M  V30 89 H -6.2019 -6.8562 -4.6443 0
M  V30 90 H 8.1588 5.2394 4.1939 0
M  V30 91 H 7.9985 1.4076 2.2107 0
M  V30 92 H 10.6122 5.0495 4.34 0
M  V30 93 H 10.4574 1.2369 2.3666 0
M  V30 94 H 11.7704 3.0553 3.4273 0
M  V30 95 H -5.9119 2.2533 -2.391 0
M  V30 96 H -7.2413 3.4123 -2.4361 0
M  V30 97 H -6.5866 2.8467 -0.8818 0
M  V30 98 H -9.0121 2.2609 -0.245 0
M  V30 99 H -9.6029 2.7258 -1.8556 0
M  V30 100 H -9.9146 1.1014 -1.205 0
M  V30 101 H -7.2419 0.5451 -3.806 0
M  V30 102 H -8.8114 -0.012 -3.2486 0
M  V30 103 H -8.6307 1.6279 -3.9132 0
M  V30 END ATOM
M  V30 BEGIN BOND
M  V30 1 1 1 2
M  V30 2 1 1 3
M  V30 3 1 2 4
M  V30 4 1 4 5
M  V30 5 1 5 6
M  V30 6 1 5 7
M  V30 7 1 6 8
M  V30 8 2 7 9
M  V30 9 1 7 10
M  V30 10 2 8 11
M  V30 11 1 8 12
M  V30 12 1 10 13
M  V30 13 1 12 14
M  V30 14 1 12 15
M  V30 15 1 13 16
M  V30 16 1 13 17
M  V30 17 1 14 18
M  V30 18 1 15 19
M  V30 19 2 16 20
M  V30 20 1 16 21
M  V30 21 1 17 22
M  V30 22 2 18 23
M  V30 23 1 18 24
M  V30 24 1 19 25
M  V30 25 2 19 26
M  V30 26 1 21 27
M  V30 27 2 22 28
M  V30 28 1 22 29
M  V30 29 1 24 30
M  V30 30 2 25 31
M  V30 31 1 25 32
M  V30 32 1 26 33
M  V30 33 1 27 34
M  V30 34 1 27 35
M  V30 35 1 30 36
M  V30 36 1 31 37
M  V30 37 2 32 38
M  V30 38 2 34 39
M  V30 39 1 34 40
M  V30 40 1 35 41
M  V30 41 1 36 42
M  V30 42 2 37 43
M  V30 43 2 41 44
M  V30 44 1 41 45
M  V30 45 2 42 46
M  V30 46 1 42 47
M  V30 47 1 44 48
M  V30 48 2 45 49
M  V30 49 1 47 50
M  V30 50 2 48 51
M  V30 51 1 50 52
M  V30 52 1 50 53
M  V30 53 1 50 54
M  V30 54 1 31 33
M  V30 55 1 38 43
M  V30 56 1 49 51
M  V30 57 1 2 55
M  V30 58 1 2 56
M  V30 59 1 3 57
M  V30 60 1 3 58
M  V30 61 1 3 59
M  V30 62 1 4 60
M  V30 63 1 4 61
M  V30 64 1 5 62
M  V30 65 1 6 63
M  V30 66 1 10 64
M  V30 67 1 12 65
M  V30 68 1 13 66
M  V30 69 1 14 67
M  V30 70 1 15 68
M  V30 71 1 15 69
M  V30 72 1 17 70
M  V30 73 1 17 71
M  V30 74 1 21 72
M  V30 75 1 24 73
M  V30 76 1 24 74
M  V30 77 1 26 75
M  V30 78 1 27 76
M  V30 79 1 29 77
M  V30 80 1 30 78
M  V30 81 1 30 79
M  V30 82 1 32 80
M  V30 83 1 33 81
M  V30 84 1 35 82
M  V30 85 1 35 83
M  V30 86 1 36 84
M  V30 87 1 37 85
M  V30 88 1 38 86
M  V30 89 1 40 87
M  V30 90 1 40 88
M  V30 91 1 43 89
M  V30 92 1 44 90
M  V30 93 1 45 91
M  V30 94 1 48 92
M  V30 95 1 49 93
M  V30 96 1 51 94
M  V30 97 1 52 95
M  V30 98 1 52 96
M  V30 99 1 52 97
M  V30 100 1 53 98
M  V30 101 1 53 99
M  V30 102 1 53 100
M  V30 103 1 54 101
M  V30 104 1 54 102
M  V30 105 1 54 103
M  V30 END BOND
M  V30 END CTAB
M  END
>  <level_0>
5829

>  <index>
5829

>  <NO.>
5830

>  <Name>
pentagastrin

>  <SMILES>
CSCCC(NC(=O)C(Cc1c[nH]c2ccccc12)NC(=O)CCNC(=O)OC(C)(C)C)C(=O)NC(CC(=O)O)C(=O)NC(Cc1ccccc1)C(N)=O

>  <logBB>


>  <Class>
-1

>  <MW>
767.33

>  <nHBAcc>
9

>  <nHBDon>
8

>  <SLogP>
1.52

>  <TopoPSA>
250.91

>  <MMFF94 Energy>
-40.626

$$$$
CSc1nc2cc(Oc3cccc(Cl)c3Cl)c(Cl)cc2[nH]1
Actelion Java MolfileCreator 2.0

  0  0  0  0  0  0              0 V3000
M  V30 BEGIN CTAB
M  V30 COUNTS 30 32 0 0 0
M  V30 BEGIN ATOM
M  V30 1 Cl 1.7822 2.0369 4.2471 0
M  V30 2 C 0.1521 1.6685 3.7786 0
M  V30 3 C -0.9064 1.7876 4.6898 0
M  V30 4 C -0.1111 1.2372 2.4667 0
M  V30 5 Cl -0.6737 2.2985 6.3263 0
M  V30 6 C -2.2146 1.4928 4.2912 0
M  V30 7 O 0.9576 1.1521 1.5924 0
M  V30 8 C -1.4282 0.9632 2.0707 0
M  V30 9 C -2.4752 1.0854 2.984 0
M  V30 10 C 0.9224 0.1579 0.6389 0
M  V30 11 C 1.1202 -1.1954 0.9526 0
M  V30 12 C 0.7565 0.5773 -0.6899 0
M  V30 13 Cl 1.4096 -1.7211 2.5737 0
M  V30 14 C 1.1084 -2.1763 -0.0493 0
M  V30 15 C 0.7385 -0.394 -1.6992 0
M  V30 16 C 0.9102 -1.7341 -1.36 0
M  V30 17 N 0.5702 -0.2458 -3.054 0
M  V30 18 N 0.8462 -2.3942 -2.5614 0
M  V30 19 C 0.642 -1.4621 -3.5351 0
M  V30 20 S 0.5104 -1.958 -5.1793 0
M  V30 21 C 0.2957 -0.3558 -5.9884 0
M  V30 22 H -3.0376 1.5856 4.9967 0
M  V30 23 H -1.6592 0.6627 1.0521 0
M  V30 24 H -3.4953 0.8677 2.675 0
M  V30 25 H 0.6359 1.6262 -0.9378 0
M  V30 26 H 1.2575 -3.2257 0.182 0
M  V30 27 H 0.9356 -3.3869 -2.7177 0
M  V30 28 H 1.1616 0.2871 -5.8073 0
M  V30 29 H -0.609 0.1411 -5.6269 0
M  V30 30 H 0.1983 -0.5085 -7.0666 0
M  V30 END ATOM
M  V30 BEGIN BOND
M  V30 1 1 1 2
M  V30 2 2 2 3
M  V30 3 1 2 4
M  V30 4 1 3 5
M  V30 5 1 3 6
M  V30 6 1 4 7
M  V30 7 2 4 8
M  V30 8 2 6 9
M  V30 9 1 7 10
M  V30 10 2 10 11
M  V30 11 1 10 12
M  V30 12 1 11 13
M  V30 13 1 11 14
M  V30 14 2 12 15
M  V30 15 2 14 16
M  V30 16 1 15 17
M  V30 17 1 16 18
M  V30 18 2 17 19
M  V30 19 1 19 20
M  V30 20 1 20 21
M  V30 21 1 8 9
M  V30 22 1 15 16
M  V30 23 1 18 19
M  V30 24 1 6 22
M  V30 25 1 8 23
M  V30 26 1 9 24
M  V30 27 1 12 25
M  V30 28 1 14 26
M  V30 29 1 18 27
M  V30 30 1 21 28
M  V30 31 1 21 29
M  V30 32 1 21 30
M  V30 END BOND
M  V30 END CTAB
M  END
>  <level_0>
5830

>  <index>
5830

>  <NO.>
5831

>  <Name>
triclabendazole

>  <SMILES>
CSc1nc2cc(Oc3cccc(Cl)c3Cl)c(Cl)cc2[nH]1

>  <logBB>


>  <Class>
-1

>  <MW>
357.95

>  <nHBAcc>
3

>  <nHBDon>
1

>  <SLogP>
6.04

>  <TopoPSA>
37.91

>  <MMFF94 Energy>
37.535

$$$$
C[C@H](O)C(=O)Nc1c(I)c(C(=O)NC(CO)CO)c(I)c(C(=O)NC(CO)CO)c1I
Actelion Java MolfileCreator 2.0

  0  0  0  0  0  0              0 V3000
M  V30 BEGIN CTAB
M  V30 COUNTS 53 53 0 0 0
M  V30 BEGIN ATOM
M  V30 1 I -1.8064 1.9707 -2.9572 0
M  V30 2 C -1.3624 0.565 -1.4032 0
M  V30 3 C -1.9496 0.7252 -0.1299 0
M  V30 4 C -0.54 -0.5495 -1.6594 0
M  V30 5 N -2.7185 1.8682 0.1708 0
M  V30 6 C -1.761 -0.2606 0.8595 0
M  V30 7 C -0.3253 -1.5232 -0.663 0
M  V30 8 C 0.0828 -0.7124 -2.9876 0
M  V30 9 C -2.1269 3.0889 0.4647 0
M  V30 10 I -2.7107 -0.0251 2.7639 0
M  V30 11 C -0.943 -1.3746 0.594 0
M  V30 12 I 0.9358 -3.2067 -1.0456 0
M  V30 13 O -0.4669 -1.4226 -3.8164 0
M  V30 14 N 1.2761 -0.0446 -3.1401 0
M  V30 15 O -0.9175 3.2962 0.4373 0
M  V30 16 C -3.1759 4.1591 0.8103 0 CFG=1
M  V30 17 C -0.7504 -2.3973 1.6397 0
M  V30 18 C 2.0806 -0.1443 -4.3648 0
M  V30 19 O -4.1773 3.6111 1.6699 0
M  V30 20 C -2.5558 5.386 1.4579 0
M  V30 21 O -1.5333 -3.3326 1.7179 0
M  V30 22 N 0.3255 -2.179 2.4623 0
M  V30 23 C 1.7534 0.9953 -5.3501 0
M  V30 24 C 3.5808 -0.0937 -4.0188 0
M  V30 25 C 0.8028 -3.1381 3.464 0
M  V30 26 O 0.4601 0.8426 -5.9193 0
M  V30 27 O 3.9201 -1.1012 -3.0699 0
M  V30 28 C 1.9603 -2.4998 4.2556 0
M  V30 29 C -0.2944 -3.6399 4.4195 0
M  V30 30 O 2.878 -1.87 3.3516 0
M  V30 31 O 0.2633 -4.3839 5.5018 0
M  V30 32 H -3.6937 1.7539 0.4396 0
M  V30 33 H 1.6557 0.4846 -2.3669 0
M  V30 34 H -3.6698 4.4468 -0.1244 0
M  V30 35 H 1.8463 -1.1116 -4.8254 0
M  V30 36 H -3.7822 3.522 2.5568 0
M  V30 37 H -1.8272 5.8621 0.7944 0
M  V30 38 H -2.0447 5.1207 2.3903 0
M  V30 39 H -3.3291 6.1175 1.715 0
M  V30 40 H 0.9896 -1.4433 2.2388 0
M  V30 41 H 2.4727 1.0046 -6.1757 0
M  V30 42 H 1.7928 1.9659 -4.8428 0
M  V30 43 H 4.1837 -0.252 -4.9193 0
M  V30 44 H 3.8482 0.8756 -3.5838 0
M  V30 45 H 1.2055 -3.9887 2.9 0
M  V30 46 H 0.2603 1.644 -6.4298 0
M  V30 47 H 4.8894 -1.122 -2.9974 0
M  V30 48 H 2.5054 -3.2534 4.8331 0
M  V30 49 H 1.5892 -1.7258 4.9362 0
M  V30 50 H -0.9997 -4.2926 3.8974 0
M  V30 51 H -0.8549 -2.7983 4.8413 0
M  V30 52 H 3.6606 -1.6309 3.8792 0
M  V30 53 H -0.4871 -4.7944 5.9676 0
M  V30 END ATOM
M  V30 BEGIN BOND
M  V30 1 1 1 2
M  V30 2 2 2 3
M  V30 3 1 2 4
M  V30 4 1 3 5
M  V30 5 1 3 6
M  V30 6 2 4 7
M  V30 7 1 4 8
M  V30 8 1 5 9
M  V30 9 1 6 10
M  V30 10 2 6 11
M  V30 11 1 7 12
M  V30 12 2 8 13
M  V30 13 1 8 14
M  V30 14 2 9 15
M  V30 15 1 9 16
M  V30 16 1 11 17
M  V30 17 1 14 18
M  V30 18 1 16 19
M  V30 19 1 16 20
M  V30 20 2 17 21
M  V30 21 1 17 22
M  V30 22 1 18 23
M  V30 23 1 18 24
M  V30 24 1 22 25
M  V30 25 1 23 26
M  V30 26 1 24 27
M  V30 27 1 25 28
M  V30 28 1 25 29
M  V30 29 1 28 30
M  V30 30 1 29 31
M  V30 31 1 7 11
M  V30 32 1 5 32
M  V30 33 1 14 33
M  V30 34 1 16 34
M  V30 35 1 18 35
M  V30 36 1 19 36
M  V30 37 1 20 37
M  V30 38 1 20 38
M  V30 39 1 20 39
M  V30 40 1 22 40
M  V30 41 1 23 41
M  V30 42 1 23 42
M  V30 43 1 24 43
M  V30 44 1 24 44
M  V30 45 1 25 45
M  V30 46 1 26 46
M  V30 47 1 27 47
M  V30 48 1 28 48
M  V30 49 1 28 49
M  V30 50 1 29 50
M  V30 51 1 29 51
M  V30 52 1 30 52
M  V30 53 1 31 53
M  V30 END BOND
M  V30 BEGIN COLLECTION
M  V30 MDLV30/STEABS ATOMS=(1 16)
M  V30 END COLLECTION
M  V30 END CTAB
M  END
>  <level_0>
5832

>  <index>
5832

>  <NO.>
5833

>  <Name>
iopamidol

>  <SMILES>
C[C@H](O)C(=O)Nc1c(I)c(C(=O)NC(CO)CO)c(I)c(C(=O)NC(CO)CO)c1I

>  <logBB>


>  <Class>
-1

>  <MW>
776.85

>  <nHBAcc>
8

>  <nHBDon>
8

>  <SLogP>
-1.01

>  <TopoPSA>
188.45

>  <MMFF94 Energy>
99.367

$$$$
C[N+](C)(C)CCOC(N)=O
Actelion Java MolfileCreator 2.0

  0  0  0  0  0  0              0 V3000
M  V30 BEGIN CTAB
M  V30 COUNTS 25 24 0 0 0
M  V30 BEGIN ATOM
M  V30 1 O -2.5172 -0.1524 1.2198 0
M  V30 2 C -1.7275 0.4409 1.9341 0
M  V30 3 O -0.3994 0.1965 2.0095 0
M  V30 4 N -2.0585 1.4743 2.7337 0
M  V30 5 C 0.0523 -1.0007 1.3594 0
M  V30 6 C 1.1195 -0.7076 0.296 0
M  V30 7 N 0.6169 -0.0922 -1.0339 0 CHG=1
M  V30 8 C -0.4987 -0.9236 -1.6591 0
M  V30 9 C 1.8003 -0.0683 -2.007 0
M  V30 10 C 0.1365 1.3413 -0.8486 0
M  V30 11 H -3.027 1.7583 2.7978 0
M  V30 12 H -1.3753 1.9103 3.3351 0
M  V30 13 H -0.758 -1.6214 0.9652 0
M  V30 14 H 0.5268 -1.5978 2.1472 0
M  V30 15 H 1.6115 -1.649 0.0245 0
M  V30 16 H 1.8733 -0.0158 0.6895 0
M  V30 17 H -0.7102 -0.5228 -2.6551 0
M  V30 18 H -0.1572 -1.9602 -1.7286 0
M  V30 19 H -1.3929 -0.8497 -1.0382 0
M  V30 20 H 2.1375 -1.0966 -2.1673 0
M  V30 21 H 1.4681 0.3724 -2.9518 0
M  V30 22 H 2.5982 0.5346 -1.5635 0
M  V30 23 H -0.0124 1.786 -1.8377 0
M  V30 24 H -0.8125 1.3378 -0.3157 0
M  V30 25 H 0.8985 1.8963 -0.2945 0
M  V30 END ATOM
M  V30 BEGIN BOND
M  V30 1 2 1 2
M  V30 2 1 2 3
M  V30 3 1 2 4
M  V30 4 1 3 5
M  V30 5 1 5 6
M  V30 6 1 6 7
M  V30 7 1 7 8
M  V30 8 1 7 9
M  V30 9 1 7 10
M  V30 10 1 4 11
M  V30 11 1 4 12
M  V30 12 1 5 13
M  V30 13 1 5 14
M  V30 14 1 6 15
M  V30 15 1 6 16
M  V30 16 1 8 17
M  V30 17 1 8 18
M  V30 18 1 8 19
M  V30 19 1 9 20
M  V30 20 1 9 21
M  V30 21 1 9 22
M  V30 22 1 10 23
M  V30 23 1 10 24
M  V30 24 1 10 25
M  V30 END BOND
M  V30 END CTAB
M  END
>  <level_0>
5835

>  <index>
5835

>  <NO.>
5836

>  <Name>
carbamylcholine

>  <SMILES>
C[N+](C)(C)CCOC(N)=O

>  <logBB>


>  <Class>
-1

>  <MW>
147.11

>  <nHBAcc>
2

>  <nHBDon>
1

>  <SLogP>
-0.21

>  <TopoPSA>
52.32

>  <MMFF94 Energy>
-42.536

$$$$
C[N+](C)(CCCCCC[N+](C)(C)C1c2ccccc2-c2ccccc21)C1c2ccccc2-c2ccccc21
Actelion Java MolfileCreator 2.0

  0  0  0  0  0  0              0 V3000
M  V30 BEGIN CTAB
M  V30 COUNTS 80 85 0 0 0
M  V30 BEGIN ATOM
M  V30 1 N -4.1543 0.3988 -2.0755 0 CHG=1
M  V30 2 C -3.3188 0.4657 -3.4158 0
M  V30 3 C -3.3278 -0.066 -0.863 0
M  V30 4 C -4.7758 1.7571 -1.7589 0
M  V30 5 C -5.3146 -0.604 -2.2437 0
M  V30 6 C -2.7428 -0.8801 -3.8752 0
M  V30 7 C -4.1265 0.8838 -4.6522 0
M  V30 8 C -2.1123 0.8192 -0.5561 0
M  V30 9 C -3.3231 -1.253 -5.1092 0
M  V30 10 C -1.767 -1.6803 -3.2925 0
M  V30 11 C -4.1653 -0.178 -5.5828 0
M  V30 12 C -4.7222 2.1033 -4.9535 0
M  V30 13 C -1.3411 0.2903 0.6639 0
M  V30 14 C -2.9939 -2.4527 -5.7211 0
M  V30 15 C -1.4347 -2.8896 -3.9094 0
M  V30 16 C -4.8648 -0.058 -6.7736 0
M  V30 17 C -5.4266 2.2246 -6.154 0
M  V30 18 C -0.1182 1.1587 0.988 0
M  V30 19 C -2.0523 -3.2783 -5.1057 0
M  V30 20 C -5.5087 1.1493 -7.0494 0
M  V30 21 C 0.6582 0.6246 2.2024 0
M  V30 22 C 1.8775 1.5061 2.5053 0
M  V30 23 N 2.7098 1.0353 3.7116 0 CHG=1
M  V30 24 C 3.2681 -0.4351 3.5529 0
M  V30 25 C 1.8618 1.1569 4.9756 0
M  V30 26 C 3.8895 2.0187 3.859 0
M  V30 27 C 4.2217 -0.6298 2.3669 0
M  V30 28 C 4.1394 -0.9173 4.7208 0
M  V30 29 C 5.5101 -0.9698 2.8394 0
M  V30 30 C 3.9744 -0.5632 1.0007 0
M  V30 31 C 5.4595 -1.1457 4.2733 0
M  V30 32 C 3.7892 -1.1841 6.0394 0
M  V30 33 C 6.5657 -1.1646 1.962 0
M  V30 34 C 5.0382 -0.76 0.116 0
M  V30 35 C 6.4494 -1.5582 5.1518 0
M  V30 36 C 4.7866 -1.6006 6.9247 0
M  V30 37 C 6.3249 -1.0448 0.5929 0
M  V30 38 C 6.1074 -1.7726 6.488 0
M  V30 39 H -2.5098 1.1897 -3.2691 0
M  V30 40 H -3.0366 -1.1061 -1.0317 0
M  V30 41 H -4.0072 -0.0681 -5.0E-4 0
M  V30 42 H -5.1464 1.7413 -0.729 0
M  V30 43 H -4.012 2.5302 -1.8759 0
M  V30 44 H -5.6201 1.9358 -2.4287 0
M  V30 45 H -5.8981 -0.6023 -1.3172 0
M  V30 46 H -4.9027 -1.6013 -2.4176 0
M  V30 47 H -5.9493 -0.2887 -3.0755 0
M  V30 48 H -1.4287 0.8542 -1.4095 0
M  V30 49 H -2.4308 1.8471 -0.3519 0
M  V30 50 H -1.2413 -1.3951 -2.3895 0
M  V30 51 H -4.6452 2.9675 -4.3026 0
M  V30 52 H -1.0159 -0.7391 0.4706 0
M  V30 53 H -2.0087 0.2612 1.5337 0
M  V30 54 H -3.43 -2.7454 -6.6723 0
M  V30 55 H -0.6777 -3.5382 -3.4709 0
M  V30 56 H -4.8977 -0.8651 -7.5001 0
M  V30 57 H -5.9079 3.1674 -6.4122 0
M  V30 58 H -0.4432 2.1875 1.1858 0
M  V30 59 H 0.5467 1.1911 0.1164 0
M  V30 60 H -1.7731 -4.2201 -5.5764 0
M  V30 61 H -6.0547 1.2681 -7.9845 0
M  V30 62 H 0.9624 -0.4051 1.9935 0
M  V30 63 H -0.0155 0.596 3.0656 0
M  V30 64 H 1.5446 2.5276 2.7315 0
M  V30 65 H 2.545 1.5806 1.6428 0
M  V30 66 H 2.4099 -1.1096 3.4591 0
M  V30 67 H 1.168 0.3133 5.0171 0
M  V30 68 H 2.5144 1.1712 5.8515 0
M  V30 69 H 1.3101 2.1017 4.9377 0
M  V30 70 H 4.4887 1.9976 2.9453 0
M  V30 71 H 3.4754 3.0217 4.0055 0
M  V30 72 H 4.4879 1.74 4.7299 0
M  V30 73 H 2.9865 -0.383 0.5949 0
M  V30 74 H 2.7703 -1.0998 6.4016 0
M  V30 75 H 7.5579 -1.432 2.3151 0
M  V30 76 H 4.8733 -0.7075 -0.9591 0
M  V30 77 H 7.4671 -1.7427 4.8191 0
M  V30 78 H 4.5407 -1.8109 7.9651 0
M  V30 79 H 7.1393 -1.2043 -0.1125 0
M  V30 80 H 6.868 -2.1074 7.1923 0
M  V30 END ATOM
M  V30 BEGIN BOND
M  V30 1 1 1 2
M  V30 2 1 1 3
M  V30 3 1 1 4
M  V30 4 1 1 5
M  V30 5 1 2 6
M  V30 6 1 2 7
M  V30 7 1 3 8
M  V30 8 2 6 9
M  V30 9 1 6 10
M  V30 10 2 7 11
M  V30 11 1 7 12
M  V30 12 1 8 13
M  V30 13 1 9 14
M  V30 14 2 10 15
M  V30 15 1 11 16
M  V30 16 2 12 17
M  V30 17 1 13 18
M  V30 18 2 14 19
M  V30 19 2 16 20
M  V30 20 1 18 21
M  V30 21 1 21 22
M  V30 22 1 22 23
M  V30 23 1 23 24
M  V30 24 1 23 25
M  V30 25 1 23 26
M  V30 26 1 24 27
M  V30 27 1 24 28
M  V30 28 2 27 29
M  V30 29 1 27 30
M  V30 30 2 28 31
M  V30 31 1 28 32
M  V30 32 1 29 33
M  V30 33 2 30 34
M  V30 34 1 31 35
M  V30 35 2 32 36
M  V30 36 2 33 37
M  V30 37 2 35 38
M  V30 38 1 9 11
M  V30 39 1 15 19
M  V30 40 1 17 20
M  V30 41 1 29 31
M  V30 42 1 34 37
M  V30 43 1 36 38
M  V30 44 1 2 39
M  V30 45 1 3 40
M  V30 46 1 3 41
M  V30 47 1 4 42
M  V30 48 1 4 43
M  V30 49 1 4 44
M  V30 50 1 5 45
M  V30 51 1 5 46
M  V30 52 1 5 47
M  V30 53 1 8 48
M  V30 54 1 8 49
M  V30 55 1 10 50
M  V30 56 1 12 51
M  V30 57 1 13 52
M  V30 58 1 13 53
M  V30 59 1 14 54
M  V30 60 1 15 55
M  V30 61 1 16 56
M  V30 62 1 17 57
M  V30 63 1 18 58
M  V30 64 1 18 59
M  V30 65 1 19 60
M  V30 66 1 20 61
M  V30 67 1 21 62
M  V30 68 1 21 63
M  V30 69 1 22 64
M  V30 70 1 22 65
M  V30 71 1 24 66
M  V30 72 1 25 67
M  V30 73 1 25 68
M  V30 74 1 25 69
M  V30 75 1 26 70
M  V30 76 1 26 71
M  V30 77 1 26 72
M  V30 78 1 30 73
M  V30 79 1 32 74
M  V30 80 1 33 75
M  V30 81 1 34 76
M  V30 82 1 35 77
M  V30 83 1 36 78
M  V30 84 1 37 79
M  V30 85 1 38 80
M  V30 END BOND
M  V30 END CTAB
M  END
>  <level_0>
5836

>  <index>
5836

>  <NO.>
5837

>  <Name>
hexafluronium

>  <SMILES>
C[N+](C)(CCCCCC[N+](C)(C)C1c2ccccc2-c2ccccc21)C1c2ccccc2-c2ccccc21

>  <logBB>


>  <Class>
-1

>  <MW>
502.33

>  <nHBAcc>
0

>  <nHBDon>
0

>  <SLogP>
8.24

>  <TopoPSA>
0.0

>  <MMFF94 Energy>
148.87

$$$$
Cc1c(-c2ccc(O)cc2)n(Cc2ccc(OCCN3CCCCCC3)cc2)c2ccc(O)cc12
Actelion Java MolfileCreator 2.0

  0  0  0  0  0  0              0 V3000
M  V30 BEGIN CTAB
M  V30 COUNTS 69 73 0 0 0
M  V30 BEGIN ATOM
M  V30 1 O 2.3837 -1.1913 0.9529 0
M  V30 2 C 1.1816 -1.5166 0.3905 0
M  V30 3 C 2.4706 -1.2283 2.3782 0
M  V30 4 C 1.1474 -1.4297 -1.002 0
M  V30 5 C 0.0348 -1.9163 1.0735 0
M  V30 6 C 3.8912 -0.8195 2.819 0
M  V30 7 C -0.018 -1.7337 -1.7103 0
M  V30 8 C -1.1348 -2.2205 0.3673 0
M  V30 9 N 4.2784 0.5709 2.5074 0
M  V30 10 C -1.1797 -2.123 -1.0315 0
M  V30 11 C 3.3799 1.5627 3.1055 0
M  V30 12 C 5.7096 0.8036 2.6943 0
M  V30 13 C -2.4498 -2.4717 -1.7707 0
M  V30 14 C 3.9309 2.9882 3.2384 0
M  V30 15 C 6.2116 0.9074 4.1358 0
M  V30 16 N -2.8999 -1.4117 -2.6747 0
M  V30 17 C 5.0482 3.1941 4.2734 0
M  V30 18 C 5.513 1.9439 5.0156 0
M  V30 19 C -3.545 -0.2503 -2.2849 0
M  V30 20 C -2.785 -1.4547 -4.0547 0
M  V30 21 C -3.8097 0.1139 -0.8943 0
M  V30 22 C -3.8409 0.4713 -3.4337 0
M  V30 23 C -3.3619 -0.2825 -4.5503 0
M  V30 24 C -2.2162 -2.4176 -4.9088 0
M  V30 25 C -4.9294 -0.399 -0.2299 0
M  V30 26 C -2.8643 0.8562 -0.1754 0
M  V30 27 C -4.5208 1.796 -3.4865 0
M  V30 28 C -3.3697 -0.0629 -5.9463 0
M  V30 29 C -2.238 -2.1793 -6.2852 0
M  V30 30 C -5.1248 -0.1316 1.1261 0
M  V30 31 C -3.0579 1.1251 1.1811 0
M  V30 32 C -2.8058 -1.0207 -6.7891 0
M  V30 33 C -4.1905 0.6298 1.8191 0
M  V30 34 O -2.793 -0.8475 -8.1435 0
M  V30 35 O -4.4179 0.864 3.1429 0
M  V30 36 H 2.2944 -2.2545 2.7241 0
M  V30 37 H 1.7228 -0.5675 2.8313 0
M  V30 38 H 2.0388 -1.1188 -1.5421 0
M  V30 39 H 0.0117 -2.0018 2.1543 0
M  V30 40 H 3.9876 -1.0009 3.8966 0
M  V30 41 H 4.5886 -1.4963 2.3088 0
M  V30 42 H -0.0075 -1.6517 -2.795 0
M  V30 43 H -2.0201 -2.521 0.9253 0
M  V30 44 H 2.488 1.6237 2.4692 0
M  V30 45 H 3.024 1.2321 4.0892 0
M  V30 46 H 6.2753 0.0087 2.1899 0
M  V30 47 H 5.9982 1.7085 2.1447 0
M  V30 48 H -3.277 -2.674 -1.0807 0
M  V30 49 H -2.2982 -3.3917 -2.3434 0
M  V30 50 H 4.2718 3.3462 2.2583 0
M  V30 51 H 3.0961 3.6493 3.507 0
M  V30 52 H 6.1558 -0.0711 4.6278 0
M  V30 53 H 7.2794 1.1588 4.0934 0
M  V30 54 H 5.9076 3.6706 3.7852 0
M  V30 55 H 4.6947 3.92 5.0171 0
M  V30 56 H 4.6652 1.4803 5.5335 0
M  V30 57 H 6.207 2.2416 5.8119 0
M  V30 58 H -1.761 -3.3255 -4.5273 0
M  V30 59 H -5.6567 -1.0019 -0.7681 0
M  V30 60 H -1.9664 1.2189 -0.672 0
M  V30 61 H -4.9354 1.9955 -4.4792 0
M  V30 62 H -3.8109 2.5937 -3.2458 0
M  V30 63 H -5.3487 1.8413 -2.7715 0
M  V30 64 H -3.8116 0.8434 -6.3441 0
M  V30 65 H -1.804 -2.9067 -6.966 0
M  V30 66 H -6.0006 -0.5178 1.6394 0
M  V30 67 H -2.3134 1.7055 1.7159 0
M  V30 68 H -3.216 0.0024 -8.3472 0
M  V30 69 H -3.7178 1.4492 3.4758 0
M  V30 END ATOM
M  V30 BEGIN BOND
M  V30 1 1 1 2
M  V30 2 1 1 3
M  V30 3 2 2 4
M  V30 4 1 2 5
M  V30 5 1 3 6
M  V30 6 1 4 7
M  V30 7 2 5 8
M  V30 8 1 6 9
M  V30 9 2 7 10
M  V30 10 1 9 11
M  V30 11 1 9 12
M  V30 12 1 10 13
M  V30 13 1 11 14
M  V30 14 1 12 15
M  V30 15 1 13 16
M  V30 16 1 14 17
M  V30 17 1 15 18
M  V30 18 1 16 19
M  V30 19 1 16 20
M  V30 20 1 19 21
M  V30 21 2 19 22
M  V30 22 2 20 23
M  V30 23 1 20 24
M  V30 24 2 21 25
M  V30 25 1 21 26
M  V30 26 1 22 27
M  V30 27 1 23 28
M  V30 28 2 24 29
M  V30 29 1 25 30
M  V30 30 2 26 31
M  V30 31 2 28 32
M  V30 32 2 30 33
M  V30 33 1 32 34
M  V30 34 1 33 35
M  V30 35 1 8 10
M  V30 36 1 17 18
M  V30 37 1 22 23
M  V30 38 1 29 32
M  V30 39 1 31 33
M  V30 40 1 3 36
M  V30 41 1 3 37
M  V30 42 1 4 38
M  V30 43 1 5 39
M  V30 44 1 6 40
M  V30 45 1 6 41
M  V30 46 1 7 42
M  V30 47 1 8 43
M  V30 48 1 11 44
M  V30 49 1 11 45
M  V30 50 1 12 46
M  V30 51 1 12 47
M  V30 52 1 13 48
M  V30 53 1 13 49
M  V30 54 1 14 50
M  V30 55 1 14 51
M  V30 56 1 15 52
M  V30 57 1 15 53
M  V30 58 1 17 54
M  V30 59 1 17 55
M  V30 60 1 18 56
M  V30 61 1 18 57
M  V30 62 1 24 58
M  V30 63 1 25 59
M  V30 64 1 26 60
M  V30 65 1 27 61
M  V30 66 1 27 62
M  V30 67 1 27 63
M  V30 68 1 28 64
M  V30 69 1 29 65
M  V30 70 1 30 66
M  V30 71 1 31 67
M  V30 72 1 34 68
M  V30 73 1 35 69
M  V30 END BOND
M  V30 END CTAB
M  END
>  <level_0>
5838

>  <index>
5838

>  <NO.>
5839

>  <Name>
bazedoxifene

>  <SMILES>
Cc1c(-c2ccc(O)cc2)n(Cc2ccc(OCCN3CCCCCC3)cc2)c2ccc(O)cc12

>  <logBB>


>  <Class>
-1

>  <MW>
470.26

>  <nHBAcc>
4

>  <nHBDon>
2

>  <SLogP>
6.33

>  <TopoPSA>
57.86

>  <MMFF94 Energy>
89.499

$$$$
Cc1ccc(-n2[nH]c(C)c(N=Nc3cccc(-c4cccc(C(=O)O)c4)c3O)c2=O)cc1C
Actelion Java MolfileCreator 2.0

  0  0  0  0  0  0              0 V3000
M  V30 BEGIN CTAB
M  V30 COUNTS 55 58 0 0 0
M  V30 BEGIN ATOM
M  V30 1 O 3.0328 0.3986 0.5581 0
M  V30 2 C 2.2315 -0.4365 0.9479 0
M  V30 3 N 2.4398 -1.6019 1.6958 0
M  V30 4 C 0.7513 -0.3822 0.691 0
M  V30 5 N 1.2211 -2.2277 1.8952 0
M  V30 6 C 3.6352 -2.1428 2.1982 0
M  V30 7 N 0.1408 0.6434 0.039 0
M  V30 8 C 0.2373 -1.4576 1.3157 0
M  V30 9 C 4.7468 -1.3276 2.4399 0
M  V30 10 C 3.738 -3.5108 2.471 0
M  V30 11 N -0.3175 0.3406 -1.0834 0
M  V30 12 C -1.1998 -1.8152 1.4647 0
M  V30 13 C 5.9467 -1.855 2.9525 0
M  V30 14 C 4.9224 -4.049 2.9813 0
M  V30 15 C -0.8873 1.4719 -1.7054 0
M  V30 16 C 6.0331 -3.232 3.2313 0
M  V30 17 C 7.1099 -0.931 3.1931 0
M  V30 18 C -2.2415 1.4422 -2.0852 0
M  V30 19 C -0.126 2.608 -2.0021 0
M  V30 20 C 7.294 -3.846 3.775 0
M  V30 21 O -2.9781 0.3074 -1.8279 0
M  V30 22 C -2.8563 2.531 -2.7295 0
M  V30 23 C -0.7101 3.7002 -2.6407 0
M  V30 24 C -4.2768 2.5235 -3.1242 0
M  V30 25 C -2.0608 3.6605 -2.9971 0
M  V30 26 C -5.2929 2.3398 -2.1703 0
M  V30 27 C -4.6521 2.7138 -4.4654 0
M  V30 28 C -6.6433 2.3437 -2.5458 0
M  V30 29 C -5.9961 2.7186 -4.8459 0
M  V30 30 C -7.7344 2.1516 -1.5605 0
M  V30 31 C -6.9908 2.5341 -3.8875 0
M  V30 32 O -8.9251 2.1208 -1.8131 0
M  V30 33 O -7.2885 2.0139 -0.2994 0
M  V30 34 H 1.0399 -2.7551 2.7442 0
M  V30 35 H 4.6895 -0.26 2.2362 0
M  V30 36 H 2.9092 -4.1829 2.2674 0
M  V30 37 H -1.4043 -2.7747 0.9792 0
M  V30 38 H -1.8597 -1.0649 1.0183 0
M  V30 39 H -1.4639 -1.9016 2.5238 0
M  V30 40 H 4.9726 -5.1185 3.1752 0
M  V30 41 H 6.8781 0.0962 2.8921 0
M  V30 42 H 7.3665 -0.9135 4.257 0
M  V30 43 H 7.9793 -1.2541 2.6121 0
M  V30 44 H 0.927 2.6389 -1.7312 0
M  V30 45 H 8.1106 -3.7358 3.0546 0
M  V30 46 H 7.1674 -4.9159 3.972 0
M  V30 47 H 7.5732 -3.3705 4.7205 0
M  V30 48 H -2.3619 -0.3374 -1.4353 0
M  V30 49 H -0.115 4.5833 -2.8604 0
M  V30 50 H -2.4987 4.53 -3.4853 0
M  V30 51 H -5.0203 2.1892 -1.1275 0
M  V30 52 H -3.8891 2.8479 -5.2303 0
M  V30 53 H -6.2653 2.8617 -5.8893 0
M  V30 54 H -8.0363 2.5366 -4.1894 0
M  V30 55 H -8.1073 1.8991 0.226 0
M  V30 END ATOM
M  V30 BEGIN BOND
M  V30 1 2 1 2
M  V30 2 1 2 3
M  V30 3 1 2 4
M  V30 4 1 3 5
M  V30 5 1 3 6
M  V30 6 1 4 7
M  V30 7 2 4 8
M  V30 8 2 6 9
M  V30 9 1 6 10
M  V30 10 2 7 11
M  V30 11 1 8 12
M  V30 12 1 9 13
M  V30 13 2 10 14
M  V30 14 1 11 15
M  V30 15 2 13 16
M  V30 16 1 13 17
M  V30 17 2 15 18
M  V30 18 1 15 19
M  V30 19 1 16 20
M  V30 20 1 18 21
M  V30 21 1 18 22
M  V30 22 2 19 23
M  V30 23 1 22 24
M  V30 24 2 22 25
M  V30 25 2 24 26
M  V30 26 1 24 27
M  V30 27 1 26 28
M  V30 28 2 27 29
M  V30 29 1 28 30
M  V30 30 2 28 31
M  V30 31 2 30 32
M  V30 32 1 30 33
M  V30 33 1 5 8
M  V30 34 1 14 16
M  V30 35 1 23 25
M  V30 36 1 29 31
M  V30 37 1 5 34
M  V30 38 1 9 35
M  V30 39 1 10 36
M  V30 40 1 12 37
M  V30 41 1 12 38
M  V30 42 1 12 39
M  V30 43 1 14 40
M  V30 44 1 17 41
M  V30 45 1 17 42
M  V30 46 1 17 43
M  V30 47 1 19 44
M  V30 48 1 20 45
M  V30 49 1 20 46
M  V30 50 1 20 47
M  V30 51 1 21 48
M  V30 52 1 23 49
M  V30 53 1 25 50
M  V30 54 1 26 51
M  V30 55 1 27 52
M  V30 56 1 29 53
M  V30 57 1 31 54
M  V30 58 1 33 55
M  V30 END BOND
M  V30 END CTAB
M  END
>  <level_0>
5847

>  <index>
5847

>  <NO.>
5848

>  <Name>
eltrombopag

>  <SMILES>
Cc1ccc(-n2[nH]c(C)c(N=Nc3cccc(-c4cccc(C(=O)O)c4)c3O)c2=O)cc1C

>  <logBB>


>  <Class>
-1

>  <MW>
442.16

>  <nHBAcc>
5

>  <nHBDon>
3

>  <SLogP>
5.58

>  <TopoPSA>
120.04

>  <MMFF94 Energy>
146.32

$$$$
Cc1ccccc1C(=O)Nc1ccc(C(=O)N2CCCC(N(C)C)c3ccccc32)cc1
Actelion Java MolfileCreator 2.0

  0  0  0  0  0  0              0 V3000
M  V30 BEGIN CTAB
M  V30 COUNTS 61 64 0 0 0
M  V30 BEGIN ATOM
M  V30 1 O -2.7032 1.9871 0.9534 0
M  V30 2 C -2.0618 1.3497 0.1203 0
M  V30 3 N -2.0397 1.5897 -1.2539 0
M  V30 4 C -1.2382 0.2429 0.6355 0
M  V30 5 C -2.7098 2.7318 -1.7548 0
M  V30 6 C -1.3236 0.7939 -2.2522 0
M  V30 7 C -1.7765 -1.0403 0.7327 0
M  V30 8 C 0.0617 0.507 1.0676 0
M  V30 9 C -1.9865 3.8126 -2.2893 0
M  V30 10 C -4.1104 2.7549 -1.7274 0
M  V30 11 C 0.0722 1.3214 -2.5679 0
M  V30 12 C -0.988 -2.0805 1.2327 0
M  V30 13 C 0.8424 -0.536 1.57 0
M  V30 14 C -2.7111 4.9076 -2.8013 0
M  V30 15 C -0.4578 3.8632 -2.3119 0 CFG=2
M  V30 16 C -4.807 3.8483 -2.2383 0
M  V30 17 C 0.0773 2.7147 -3.2064 0
M  V30 18 C 0.3272 -1.8379 1.6432 0
M  V30 19 C -4.1075 4.9232 -2.778 0
M  V30 20 N 0.1821 3.9095 -0.9666 0
M  V30 21 N 1.1642 -2.837 2.176 0
M  V30 22 C -0.4229 4.9313 -0.1009 0
M  V30 23 C 1.6233 4.166 -1.0574 0
M  V30 24 C 1.0094 -4.2039 2.0315 0
M  V30 25 O 0.1598 -4.7832 1.368 0
M  V30 26 C 2.0359 -5.0022 2.757 0
M  V30 27 C 2.7846 -5.996 2.0995 0
M  V30 28 C 2.2329 -4.751 4.1248 0
M  V30 29 C 3.726 -6.7268 2.8416 0
M  V30 30 C 2.5872 -6.3128 0.6433 0
M  V30 31 C 3.1796 -5.4813 4.8415 0
M  V30 32 C 3.9252 -6.4668 4.1996 0
M  V30 33 H -1.9291 0.7528 -3.1672 0
M  V30 34 H -1.2385 -0.2394 -1.9032 0
M  V30 35 H -2.8017 -1.2323 0.4276 0
M  V30 36 H 0.4584 1.5184 1.0122 0
M  V30 37 H -4.6599 1.9224 -1.2958 0
M  V30 38 H 0.6945 1.3162 -1.6678 0
M  V30 39 H 0.5476 0.6257 -3.2705 0
M  V30 40 H -1.4296 -3.0705 1.3082 0
M  V30 41 H 1.8553 -0.3172 1.8972 0
M  V30 42 H -2.188 5.7673 -3.2144 0
M  V30 43 H -0.1837 4.7935 -2.8319 0
M  V30 44 H -5.8929 3.8622 -2.206 0
M  V30 45 H -0.4948 2.6796 -4.1436 0
M  V30 46 H 1.1079 2.9429 -3.506 0
M  V30 47 H -4.6484 5.7801 -3.1712 0
M  V30 48 H 1.9973 -2.5171 2.6545 0
M  V30 49 H -0.3714 5.9309 -0.5474 0
M  V30 50 H 0.0886 4.9645 0.8683 0
M  V30 51 H -1.4676 4.7019 0.1307 0
M  V30 52 H 2.1452 3.3591 -1.5798 0
M  V30 53 H 2.0708 4.2053 -0.0572 0
M  V30 54 H 1.8429 5.1114 -1.5665 0
M  V30 55 H 1.6322 -4.0067 4.643 0
M  V30 56 H 4.3117 -7.5105 2.3644 0
M  V30 57 H 1.6548 -6.8674 0.4993 0
M  V30 58 H 2.5674 -5.3965 0.0445 0
M  V30 59 H 3.4079 -6.9267 0.2566 0
M  V30 60 H 3.326 -5.2929 5.9023 0
M  V30 61 H 4.6575 -7.0446 4.7589 0
M  V30 END ATOM
M  V30 BEGIN BOND
M  V30 1 2 1 2
M  V30 2 1 2 3
M  V30 3 1 2 4
M  V30 4 1 3 5
M  V30 5 1 3 6
M  V30 6 2 4 7
M  V30 7 1 4 8
M  V30 8 2 5 9
M  V30 9 1 5 10
M  V30 10 1 6 11
M  V30 11 1 7 12
M  V30 12 2 8 13
M  V30 13 1 9 14
M  V30 14 1 9 15
M  V30 15 2 10 16
M  V30 16 1 11 17
M  V30 17 2 12 18
M  V30 18 2 14 19
M  V30 19 1 15 20
M  V30 20 1 18 21
M  V30 21 1 20 22
M  V30 22 1 20 23
M  V30 23 1 21 24
M  V30 24 2 24 25
M  V30 25 1 24 26
M  V30 26 2 26 27
M  V30 27 1 26 28
M  V30 28 1 27 29
M  V30 29 1 27 30
M  V30 30 2 28 31
M  V30 31 2 29 32
M  V30 32 1 13 18
M  V30 33 1 15 17
M  V30 34 1 16 19
M  V30 35 1 31 32
M  V30 36 1 6 33
M  V30 37 1 6 34
M  V30 38 1 7 35
M  V30 39 1 8 36
M  V30 40 1 10 37
M  V30 41 1 11 38
M  V30 42 1 11 39
M  V30 43 1 12 40
M  V30 44 1 13 41
M  V30 45 1 14 42
M  V30 46 1 15 43
M  V30 47 1 16 44
M  V30 48 1 17 45
M  V30 49 1 17 46
M  V30 50 1 19 47
M  V30 51 1 21 48
M  V30 52 1 22 49
M  V30 53 1 22 50
M  V30 54 1 22 51
M  V30 55 1 23 52
M  V30 56 1 23 53
M  V30 57 1 23 54
M  V30 58 1 28 55
M  V30 59 1 29 56
M  V30 60 1 30 57
M  V30 61 1 30 58
M  V30 62 1 30 59
M  V30 63 1 31 60
M  V30 64 1 32 61
M  V30 END BOND
M  V30 BEGIN COLLECTION
M  V30 MDLV30/STERAC1 ATOMS=(1 15)
M  V30 END COLLECTION
M  V30 END CTAB
M  END
>  <level_0>
5851

>  <index>
5851

>  <NO.>
5852

>  <Name>
mozavaptan

>  <SMILES>
Cc1ccccc1C(=O)Nc1ccc(C(=O)N2CCCC(N(C)C)c3ccccc32)cc1

>  <logBB>


>  <Class>
-1

>  <MW>
427.23

>  <nHBAcc>
3

>  <nHBDon>
1

>  <SLogP>
5.29

>  <TopoPSA>
52.65

>  <MMFF94 Energy>
90.2

$$$$
Cc1ccccc1C(=O)Nc1ccc(C(=O)N2CCCC(O)c3cc(Cl)ccc32)c(C)c1
Actelion Java MolfileCreator 2.0

  0  0  0  0  0  0              0 V3000
M  V30 BEGIN CTAB
M  V30 COUNTS 57 60 0 0 0
M  V30 BEGIN ATOM
M  V30 1 Cl 0.1605 -0.7225 5.3076 0
M  V30 2 C 0.7877 -1.287 3.8081 0
M  V30 3 C 2.1172 -1.0324 3.4701 0
M  V30 4 C -0.0328 -2.0047 2.9465 0
M  V30 5 C 2.6572 -1.485 2.2497 0
M  V30 6 C 0.4782 -2.4598 1.7328 0
M  V30 7 C 1.8043 -2.1815 1.3705 0
M  V30 8 C 4.1059 -1.2055 1.8888 0 CFG=1
M  V30 9 N 2.2954 -2.6834 0.1431 0
M  V30 10 O 4.7262 -0.4186 2.9117 0
M  V30 11 C 4.952 -2.4717 1.706 0
M  V30 12 C 1.875 -2.2549 -1.1211 0
M  V30 13 C 3.2966 -3.7419 0.24 0
M  V30 14 C 4.7104 -3.1925 0.3801 0
M  V30 15 O 2.3319 -2.6957 -2.1746 0
M  V30 16 C 0.7962 -1.2454 -1.2265 0
M  V30 17 C 1.0286 0.1318 -1.1071 0
M  V30 18 C -0.4875 -1.7246 -1.5169 0
M  V30 19 C -0.0698 1.0093 -1.1992 0
M  V30 20 C 2.3882 0.7168 -0.8656 0
M  V30 21 C -1.5601 -0.8374 -1.6221 0
M  V30 22 C -1.36 0.5367 -1.4589 0
M  V30 23 N -2.492 1.3696 -1.5504 0
M  V30 24 C -2.5088 2.7484 -1.6349 0
M  V30 25 O -1.5519 3.5058 -1.7212 0
M  V30 26 C -3.8758 3.3256 -1.6834 0
M  V30 27 C -4.8095 3.1423 -0.6453 0
M  V30 28 C -4.2064 4.0762 -2.8196 0
M  V30 29 C -6.0962 3.6804 -0.8052 0
M  V30 30 C -4.4807 2.3949 0.6162 0
M  V30 31 C -5.4844 4.6157 -2.9516 0
M  V30 32 C -6.4298 4.4105 -1.9491 0
M  V30 33 H 2.7395 -0.4768 4.1693 0
M  V30 34 H -1.0637 -2.2177 3.2144 0
M  V30 35 H -0.1618 -3.0444 1.078 0
M  V30 36 H 4.133 -0.5955 0.981 0
M  V30 37 H 5.5907 -0.1341 2.57 0
M  V30 38 H 4.7886 -3.1606 2.5452 0
M  V30 39 H 6.0156 -2.2028 1.7506 0
M  V30 40 H 3.2484 -4.3618 -0.6628 0
M  V30 41 H 3.0479 -4.4003 1.0821 0
M  V30 42 H 5.4171 -4.0279 0.309 0
M  V30 43 H 4.9358 -2.5147 -0.4523 0
M  V30 44 H -0.6515 -2.7902 -1.6593 0
M  V30 45 H 0.1114 2.0734 -1.0671 0
M  V30 46 H 2.5069 0.9603 0.1939 0
M  V30 47 H 2.5179 1.6345 -1.4501 0
M  V30 48 H 3.1886 0.0373 -1.1716 0
M  V30 49 H -2.5473 -1.2355 -1.8412 0
M  V30 50 H -3.3894 0.9043 -1.6094 0
M  V30 51 H -3.4666 4.2366 -3.6013 0
M  V30 52 H -6.8479 3.5491 -0.0287 0
M  V30 53 H -4.5767 1.3171 0.4548 0
M  V30 54 H -3.4664 2.6249 0.9577 0
M  V30 55 H -5.1577 2.6798 1.4292 0
M  V30 56 H -5.7414 5.1964 -3.834 0
M  V30 57 H -7.4277 4.831 -2.0514 0
M  V30 END ATOM
M  V30 BEGIN BOND
M  V30 1 1 1 2
M  V30 2 2 2 3
M  V30 3 1 2 4
M  V30 4 1 3 5
M  V30 5 2 4 6
M  V30 6 2 5 7
M  V30 7 1 5 8
M  V30 8 1 7 9
M  V30 9 1 8 10
M  V30 10 1 8 11
M  V30 11 1 9 12
M  V30 12 1 9 13
M  V30 13 1 11 14
M  V30 14 2 12 15
M  V30 15 1 12 16
M  V30 16 2 16 17
M  V30 17 1 16 18
M  V30 18 1 17 19
M  V30 19 1 17 20
M  V30 20 2 18 21
M  V30 21 2 19 22
M  V30 22 1 22 23
M  V30 23 1 23 24
M  V30 24 2 24 25
M  V30 25 1 24 26
M  V30 26 2 26 27
M  V30 27 1 26 28
M  V30 28 1 27 29
M  V30 29 1 27 30
M  V30 30 2 28 31
M  V30 31 2 29 32
M  V30 32 1 6 7
M  V30 33 1 13 14
M  V30 34 1 21 22
M  V30 35 1 31 32
M  V30 36 1 3 33
M  V30 37 1 4 34
M  V30 38 1 6 35
M  V30 39 1 8 36
M  V30 40 1 10 37
M  V30 41 1 11 38
M  V30 42 1 11 39
M  V30 43 1 13 40
M  V30 44 1 13 41
M  V30 45 1 14 42
M  V30 46 1 14 43
M  V30 47 1 18 44
M  V30 48 1 19 45
M  V30 49 1 20 46
M  V30 50 1 20 47
M  V30 51 1 20 48
M  V30 52 1 21 49
M  V30 53 1 23 50
M  V30 54 1 28 51
M  V30 55 1 29 52
M  V30 56 1 30 53
M  V30 57 1 30 54
M  V30 58 1 30 55
M  V30 59 1 31 56
M  V30 60 1 32 57
M  V30 END BOND
M  V30 BEGIN COLLECTION
M  V30 MDLV30/STERAC1 ATOMS=(1 8)
M  V30 END COLLECTION
M  V30 END CTAB
M  END
>  <level_0>
5852

>  <index>
5852

>  <NO.>
5853

>  <Name>
tolvaptan

>  <SMILES>
Cc1ccccc1C(=O)Nc1ccc(C(=O)N2CCCC(O)c3cc(Cl)ccc32)c(C)c1

>  <logBB>


>  <Class>
-1

>  <MW>
448.16

>  <nHBAcc>
3

>  <nHBDon>
2

>  <SLogP>
5.68

>  <TopoPSA>
69.64

>  <MMFF94 Energy>
77.117

$$$$
Cc1cn(-c2cc(NC(=O)c3ccc(C)c(Nc4nccc(-c5cccnc5)n4)c3)cc(C(F)(F)F)c2)cn1
Actelion Java MolfileCreator 2.0

  0  0  0  0  0  0              0 V3000
M  V30 BEGIN CTAB
M  V30 COUNTS 61 65 0 0 0
M  V30 BEGIN ATOM
M  V30 1 F -7.8216 1.2869 -0.5628 0
M  V30 2 C -6.6376 0.6109 -0.5366 0
M  V30 3 F -6.5713 -0.0671 -1.714 0
M  V30 4 F -6.7732 -0.3285 0.4387 0
M  V30 5 C -5.4513 1.5211 -0.3265 0
M  V30 6 C -5.5134 2.8758 -0.6885 0
M  V30 7 C -4.2548 1.0071 0.2038 0
M  V30 8 C -4.3981 3.7001 -0.5036 0
M  V30 9 C -3.1351 1.8246 0.3796 0
M  V30 10 N -4.4636 5.0661 -0.8618 0
M  V30 11 C -3.2138 3.178 0.0335 0
M  V30 12 N -1.9237 1.3623 0.931 0
M  V30 13 C -5.5481 5.9016 -0.7375 0
M  V30 14 C -3.4522 5.8286 -1.3984 0
M  V30 15 C -1.5018 0.045 0.9937 0
M  V30 16 N -5.2881 7.1201 -1.1575 0
M  V30 17 C -3.9817 7.0893 -1.5764 0
M  V30 18 O -2.0784 -0.925 0.5184 0
M  V30 19 C -0.1941 -0.1535 1.6755 0
M  V30 20 C -3.3423 8.3016 -2.1328 0
M  V30 21 C 0.7103 -1.0802 1.1408 0
M  V30 22 C 0.1265 0.5464 2.8389 0
M  V30 23 C 1.9584 -1.3145 1.7369 0
M  V30 24 C 1.3613 0.3345 3.4466 0
M  V30 25 N 2.893 -2.2082 1.1938 0
M  V30 26 C 2.2842 -0.5782 2.9032 0
M  V30 27 C 2.975 -2.9182 -0.001 0
M  V30 28 C 3.6084 -0.7537 3.6022 0
M  V30 29 N 4.0229 -3.7537 -0.0893 0
M  V30 30 N 2.0867 -2.7546 -0.9873 0
M  V30 31 C 4.1709 -4.488 -1.2172 0
M  V30 32 C 2.2564 -3.4852 -2.1001 0
M  V30 33 C 5.3362 -5.3899 -1.2381 0
M  V30 34 C 3.2866 -4.3747 -2.2708 0
M  V30 35 C 5.3461 -6.598 -1.9384 0
M  V30 36 C 6.5155 -5.0868 -0.5397 0
M  V30 37 N 6.3941 -7.4582 -2.0019 0
M  V30 38 C 7.6105 -5.9498 -0.5768 0
M  V30 39 C 7.5027 -7.1123 -1.3174 0
M  V30 40 H -6.4321 3.2638 -1.1279 0
M  V30 41 H -4.2229 -0.0446 0.4845 0
M  V30 42 H -2.3523 3.8229 0.1881 0
M  V30 43 H -1.2612 2.0697 1.223 0
M  V30 44 H -6.4931 5.5771 -0.3225 0
M  V30 45 H -2.4771 5.4236 -1.6274 0
M  V30 46 H -3.3943 9.1236 -1.4121 0
M  V30 47 H -3.8523 8.6126 -3.0497 0
M  V30 48 H -2.2892 8.1223 -2.3706 0
M  V30 49 H 0.4108 -1.626 0.2496 0
M  V30 50 H -0.5804 1.233 3.2963 0
M  V30 51 H 1.6022 0.8826 4.3558 0
M  V30 52 H 3.6781 -2.4689 1.7699 0
M  V30 53 H 4.4335 -0.5494 2.9122 0
M  V30 54 H 3.6978 -1.7726 3.9922 0
M  V30 55 H 3.7137 -0.065 4.4475 0
M  V30 56 H 1.514 -3.325 -2.8768 0
M  V30 57 H 3.3891 -4.9281 -3.194 0
M  V30 58 H 4.4734 -6.9433 -2.487 0
M  V30 59 H 6.5869 -4.1667 0.0374 0
M  V30 60 H 8.523 -5.7168 -0.0397 0
M  V30 61 H 8.3269 -7.817 -1.3796 0
M  V30 END ATOM
M  V30 BEGIN BOND
M  V30 1 1 1 2
M  V30 2 1 2 3
M  V30 3 1 2 4
M  V30 4 1 2 5
M  V30 5 2 5 6
M  V30 6 1 5 7
M  V30 7 1 6 8
M  V30 8 2 7 9
M  V30 9 1 8 10
M  V30 10 2 8 11
M  V30 11 1 9 12
M  V30 12 1 10 13
M  V30 13 1 10 14
M  V30 14 1 12 15
M  V30 15 2 13 16
M  V30 16 2 14 17
M  V30 17 2 15 18
M  V30 18 1 15 19
M  V30 19 1 17 20
M  V30 20 2 19 21
M  V30 21 1 19 22
M  V30 22 1 21 23
M  V30 23 2 22 24
M  V30 24 1 23 25
M  V30 25 2 23 26
M  V30 26 1 25 27
M  V30 27 1 26 28
M  V30 28 2 27 29
M  V30 29 1 27 30
M  V30 30 1 29 31
M  V30 31 2 30 32
M  V30 32 1 31 33
M  V30 33 2 31 34
M  V30 34 2 33 35
M  V30 35 1 33 36
M  V30 36 1 35 37
M  V30 37 2 36 38
M  V30 38 2 37 39
M  V30 39 1 9 11
M  V30 40 1 16 17
M  V30 41 1 24 26
M  V30 42 1 32 34
M  V30 43 1 38 39
M  V30 44 1 6 40
M  V30 45 1 7 41
M  V30 46 1 11 42
M  V30 47 1 12 43
M  V30 48 1 13 44
M  V30 49 1 14 45
M  V30 50 1 20 46
M  V30 51 1 20 47
M  V30 52 1 20 48
M  V30 53 1 21 49
M  V30 54 1 22 50
M  V30 55 1 24 51
M  V30 56 1 25 52
M  V30 57 1 28 53
M  V30 58 1 28 54
M  V30 59 1 28 55
M  V30 60 1 32 56
M  V30 61 1 34 57
M  V30 62 1 35 58
M  V30 63 1 36 59
M  V30 64 1 38 60
M  V30 65 1 39 61
M  V30 END BOND
M  V30 END CTAB
M  END
>  <level_0>
5856

>  <index>
5856

>  <NO.>
5857

>  <Name>
nilotinib

>  <SMILES>
Cc1cn(-c2cc(NC(=O)c3ccc(C)c(Nc4nccc(-c5cccnc5)n4)c3)cc(C(F)(F)F)c2)cn1

>  <logBB>


>  <Class>
-1

>  <MW>
529.18

>  <nHBAcc>
6

>  <nHBDon>
2

>  <SLogP>
6.36

>  <TopoPSA>
97.62

>  <MMFF94 Energy>
31.339

$$$$
Cc1cn(C2CC(O)C(CO)O2)c(=O)[nH]c1=O
Actelion Java MolfileCreator 2.0

  0  0  0  0  0  0              0 V3000
M  V30 BEGIN CTAB
M  V30 COUNTS 31 32 0 0 0
M  V30 BEGIN ATOM
M  V30 1 O 2.4581 0.0 -1.982 0
M  V30 2 C 1.5917 0.8164 -1.6744 0
M  V30 3 N 0.7464 0.6711 -0.5798 0
M  V30 4 N 1.4053 1.9441 -2.4256 0
M  V30 5 C -0.2023 1.6277 -0.2715 0
M  V30 6 C 0.9351 -0.5314 0.2287 0
M  V30 7 C 0.4823 2.9224 -2.197 0
M  V30 8 C -0.3805 2.7312 -1.0087 0
M  V30 9 O 0.2439 -0.4188 1.488 0
M  V30 10 C 0.4419 -1.809 -0.4567 0
M  V30 11 O 0.3746 3.9005 -2.9281 0
M  V30 12 C -1.3877 3.7925 -0.7102 0
M  V30 13 C -0.473 -1.645 1.7334 0
M  V30 14 C -0.7725 -2.2069 0.3489 0
M  V30 15 C 0.3893 -2.5699 2.6018 0
M  V30 16 O -1.9306 -1.5889 -0.2172 0
M  V30 17 O -0.3038 -3.7574 2.9591 0
M  V30 18 H 2.0056 2.061 -3.2265 0
M  V30 19 H -0.8064 1.4607 0.6157 0
M  V30 20 H 2.0066 -0.6204 0.448 0
M  V30 21 H 1.215 -2.5809 -0.3613 0
M  V30 22 H 0.2284 -1.6779 -1.5222 0
M  V30 23 H -1.9683 3.5602 0.1889 0
M  V30 24 H -2.092 3.8983 -1.5419 0
M  V30 25 H -0.8939 4.756 -0.5468 0
M  V30 26 H -1.3995 -1.3982 2.264 0
M  V30 27 H -0.9505 -3.2852 0.3401 0
M  V30 28 H 1.3338 -2.8353 2.1143 0
M  V30 29 H 0.6597 -2.0486 3.5268 0
M  V30 30 H -1.8648 -0.6281 -0.0758 0
M  V30 31 H -0.2041 -4.4041 2.2398 0
M  V30 END ATOM
M  V30 BEGIN BOND
M  V30 1 2 1 2
M  V30 2 1 2 3
M  V30 3 1 2 4
M  V30 4 1 3 5
M  V30 5 1 3 6
M  V30 6 1 4 7
M  V30 7 2 5 8
M  V30 8 1 6 9
M  V30 9 1 6 10
M  V30 10 2 7 11
M  V30 11 1 8 12
M  V30 12 1 9 13
M  V30 13 1 10 14
M  V30 14 1 13 15
M  V30 15 1 14 16
M  V30 16 1 15 17
M  V30 17 1 7 8
M  V30 18 1 13 14
M  V30 19 1 4 18
M  V30 20 1 5 19
M  V30 21 1 6 20
M  V30 22 1 10 21
M  V30 23 1 10 22
M  V30 24 1 12 23
M  V30 25 1 12 24
M  V30 26 1 12 25
M  V30 27 1 13 26
M  V30 28 1 14 27
M  V30 29 1 15 28
M  V30 30 1 15 29
M  V30 31 1 16 30
M  V30 32 1 17 31
M  V30 END BOND
M  V30 END CTAB
M  END
>  <level_0>
5857

>  <index>
5857

>  <NO.>
5858

>  <Name>
telbivudine

>  <SMILES>
Cc1cn(C2CC(O)C(CO)O2)c(=O)[nH]c1=O

>  <logBB>


>  <Class>
-1

>  <MW>
242.09

>  <nHBAcc>
5

>  <nHBDon>
3

>  <SLogP>
-1.51

>  <TopoPSA>
104.55

>  <MMFF94 Energy>
-55.539

$$$$
Cc1cn(C2OC(CO)C(O)C2F)c(=O)[nH]c1=O
Actelion Java MolfileCreator 2.0

  0  0  0  0  0  0              0 V3000
M  V30 BEGIN CTAB
M  V30 COUNTS 31 32 0 0 0
M  V30 BEGIN ATOM
M  V30 1 F 0.5582 0.4784 -3.0331 0
M  V30 2 C 0.045 0.7301 -1.8028 0
M  V30 3 C -0.2054 -0.554 -1.0093 0
M  V30 4 C -1.352 1.2892 -1.9554 0
M  V30 5 O -1.4392 -0.3777 -0.2737 0
M  V30 6 N 0.8889 -0.8946 -0.1013 0
M  V30 7 O -1.36 2.6904 -2.1868 0
M  V30 8 C -1.9625 0.9261 -0.6141 0
M  V30 9 C 1.937 -1.6345 -0.6313 0
M  V30 10 C 0.9071 -0.4507 1.2076 0
M  V30 11 C -3.4858 0.8677 -0.6391 0
M  V30 12 O 1.9823 -2.0256 -1.7945 0
M  V30 13 N 2.9613 -1.9154 0.2311 0
M  V30 14 C 1.914 -0.723 2.0468 0
M  V30 15 O -3.9697 0.4858 0.6488 0
M  V30 16 C 3.0485 -1.5265 1.5359 0
M  V30 17 C 1.9733 -0.2724 3.4692 0
M  V30 18 O 4.0081 -1.8174 2.2407 0
M  V30 19 H 0.7147 1.4309 -1.2925 0
M  V30 20 H -0.3682 -1.3905 -1.6996 0
M  V30 21 H -1.8708 0.7961 -2.786 0
M  V30 22 H -0.8867 2.8472 -3.026 0
M  V30 23 H -1.6421 1.6197 0.1739 0
M  V30 24 H 0.055 0.1335 1.5441 0
M  V30 25 H -3.9183 1.8392 -0.8951 0
M  V30 26 H -3.8428 0.1201 -1.3547 0
M  V30 27 H 3.7268 -2.4581 -0.1365 0
M  V30 28 H -3.4779 -0.3213 0.8926 0
M  V30 29 H 2.0275 -1.1336 4.143 0
M  V30 30 H 2.8532 0.357 3.6363 0
M  V30 31 H 1.0896 0.3115 3.7473 0
M  V30 END ATOM
M  V30 BEGIN BOND
M  V30 1 1 1 2
M  V30 2 1 2 3
M  V30 3 1 2 4
M  V30 4 1 3 5
M  V30 5 1 3 6
M  V30 6 1 4 7
M  V30 7 1 4 8
M  V30 8 1 6 9
M  V30 9 1 6 10
M  V30 10 1 8 11
M  V30 11 2 9 12
M  V30 12 1 9 13
M  V30 13 2 10 14
M  V30 14 1 11 15
M  V30 15 1 13 16
M  V30 16 1 14 17
M  V30 17 2 16 18
M  V30 18 1 5 8
M  V30 19 1 14 16
M  V30 20 1 2 19
M  V30 21 1 3 20
M  V30 22 1 4 21
M  V30 23 1 7 22
M  V30 24 1 8 23
M  V30 25 1 10 24
M  V30 26 1 11 25
M  V30 27 1 11 26
M  V30 28 1 13 27
M  V30 29 1 15 28
M  V30 30 1 17 29
M  V30 31 1 17 30
M  V30 32 1 17 31
M  V30 END BOND
M  V30 END CTAB
M  END
>  <level_0>
5858

>  <index>
5858

>  <NO.>
5859

>  <Name>
clevudine

>  <SMILES>
Cc1cn(C2OC(CO)C(O)C2F)c(=O)[nH]c1=O

>  <logBB>


>  <Class>
-1

>  <MW>
260.08

>  <nHBAcc>
5

>  <nHBDon>
3

>  <SLogP>
-1.57

>  <TopoPSA>
104.55

>  <MMFF94 Energy>
-31.216

$$$$
Cc1nc2c([nH]1)CCN(C(=O)c1ccc(NC(=O)c3ccccc3-c3ccccc3)cc1)c1ccccc1-2
Actelion Java MolfileCreator 2.0

  0  0  0  0  0  0              0 V3000
M  V30 BEGIN CTAB
M  V30 COUNTS 64 69 0 0 0
M  V30 BEGIN ATOM
M  V30 1 O -2.0063 -2.0866 -2.9704 0
M  V30 2 C -0.9831 -1.4357 -2.7517 0
M  V30 3 N 0.1055 -1.4064 -3.638 0
M  V30 4 C -0.9253 -0.6695 -1.4798 0
M  V30 5 C 1.0964 -0.3761 -3.6077 0
M  V30 6 C 0.0928 -2.3836 -4.7335 0
M  V30 7 C 0.1707 -0.7642 -0.6176 0
M  V30 8 C -2.0291 0.1079 -1.1178 0
M  V30 9 C 2.4651 -0.6613 -3.4082 0
M  V30 10 C 0.6812 0.9606 -3.7038 0
M  V30 11 C 1.4363 -2.826 -5.3286 0
M  V30 12 C 0.1807 -0.0463 0.5838 0
M  V30 13 C -2.0144 0.8225 0.0829 0
M  V30 14 C 2.9603 -2.0203 -3.4189 0
M  V30 15 C 3.3753 0.3913 -3.2448 0
M  V30 16 C 1.6018 2.0004 -3.5601 0
M  V30 17 C 2.4821 -2.9737 -4.2875 0
M  V30 18 C -0.9098 0.7493 0.9415 0
M  V30 19 N 3.9824 -2.5191 -2.6577 0
M  V30 20 C 2.9443 1.7166 -3.3184 0
M  V30 21 N 3.2 -4.1024 -4.0068 0
M  V30 22 N -0.9662 1.5076 2.1263 0
M  V30 23 C 4.0992 -3.7833 -3.0146 0
M  V30 24 C -0.2052 1.3264 3.2648 0
M  V30 25 C 5.0534 -4.7748 -2.4666 0
M  V30 26 O 0.6968 0.5119 3.4239 0
M  V30 27 C -0.5134 2.2558 4.3905 0
M  V30 28 C -1.8215 2.5236 4.855 0
M  V30 29 C 0.5979 2.8665 4.9985 0
M  V30 30 C -3.0318 1.8765 4.3159 0
M  V30 31 C -1.9624 3.4405 5.9175 0
M  V30 32 C 0.4267 3.7671 6.0476 0
M  V30 33 C -3.1819 0.4805 4.3415 0
M  V30 34 C -4.0648 2.6442 3.7497 0
M  V30 35 C -0.8539 4.0575 6.5039 0
M  V30 36 C -4.3169 -0.1289 3.8015 0
M  V30 37 C -5.2016 2.0348 3.2129 0
M  V30 38 C -5.325 0.6481 3.2365 0
M  V30 39 H -0.4156 -3.2851 -4.3659 0
M  V30 40 H -0.5469 -1.9777 -5.5272 0
M  V30 41 H 1.0198 -1.3981 -0.8618 0
M  V30 42 H -2.9009 0.1532 -1.7662 0
M  V30 43 H -0.3652 1.2012 -3.8741 0
M  V30 44 H 1.3001 -3.7578 -5.8894 0
M  V30 45 H 1.7725 -2.075 -6.0553 0
M  V30 46 H 1.0574 -0.1261 1.2202 0
M  V30 47 H -2.8851 1.4169 0.3484 0
M  V30 48 H 4.4281 0.1747 -3.0726 0
M  V30 49 H 1.268 3.0331 -3.6223 0
M  V30 50 H 3.6598 2.5254 -3.1936 0
M  V30 51 H 3.1087 -5.0059 -4.4505 0
M  V30 52 H -1.6932 2.2104 2.1645 0
M  V30 53 H 5.7148 -5.1487 -3.2541 0
M  V30 54 H 5.6735 -4.3222 -1.6867 0
M  V30 55 H 4.5183 -5.6225 -2.0276 0
M  V30 56 H 1.6029 2.6364 4.648 0
M  V30 57 H -2.9518 3.6643 6.3152 0
M  V30 58 H 1.2924 4.2346 6.5102 0
M  V30 59 H -2.4065 -0.1487 4.7766 0
M  V30 60 H -3.9869 3.7295 3.7164 0
M  V30 61 H -0.9931 4.7535 7.3279 0
M  V30 62 H -4.4095 -1.2121 3.8211 0
M  V30 63 H -5.9908 2.6425 2.7774 0
M  V30 64 H -6.2074 0.171 2.8174 0
M  V30 END ATOM
M  V30 BEGIN BOND
M  V30 1 2 1 2
M  V30 2 1 2 3
M  V30 3 1 2 4
M  V30 4 1 3 5
M  V30 5 1 3 6
M  V30 6 2 4 7
M  V30 7 1 4 8
M  V30 8 2 5 9
M  V30 9 1 5 10
M  V30 10 1 6 11
M  V30 11 1 7 12
M  V30 12 2 8 13
M  V30 13 1 9 14
M  V30 14 1 9 15
M  V30 15 2 10 16
M  V30 16 1 11 17
M  V30 17 2 12 18
M  V30 18 1 14 19
M  V30 19 2 15 20
M  V30 20 1 17 21
M  V30 21 1 18 22
M  V30 22 2 19 23
M  V30 23 1 22 24
M  V30 24 1 23 25
M  V30 25 2 24 26
M  V30 26 1 24 27
M  V30 27 2 27 28
M  V30 28 1 27 29
M  V30 29 1 28 30
M  V30 30 1 28 31
M  V30 31 2 29 32
M  V30 32 2 30 33
M  V30 33 1 30 34
M  V30 34 2 31 35
M  V30 35 1 33 36
M  V30 36 2 34 37
M  V30 37 2 36 38
M  V30 38 1 13 18
M  V30 39 2 14 17
M  V30 40 1 16 20
M  V30 41 1 21 23
M  V30 42 1 32 35
M  V30 43 1 37 38
M  V30 44 1 6 39
M  V30 45 1 6 40
M  V30 46 1 7 41
M  V30 47 1 8 42
M  V30 48 1 10 43
M  V30 49 1 11 44
M  V30 50 1 11 45
M  V30 51 1 12 46
M  V30 52 1 13 47
M  V30 53 1 15 48
M  V30 54 1 16 49
M  V30 55 1 20 50
M  V30 56 1 21 51
M  V30 57 1 22 52
M  V30 58 1 25 53
M  V30 59 1 25 54
M  V30 60 1 25 55
M  V30 61 1 29 56
M  V30 62 1 31 57
M  V30 63 1 32 58
M  V30 64 1 33 59
M  V30 65 1 34 60
M  V30 66 1 35 61
M  V30 67 1 36 62
M  V30 68 1 37 63
M  V30 69 1 38 64
M  V30 END BOND
M  V30 END CTAB
M  END
>  <level_0>
5864

>  <index>
5864

>  <NO.>
5865

>  <Name>
conivaptan

>  <SMILES>
Cc1nc2c([nH]1)CCN(C(=O)c1ccc(NC(=O)c3ccccc3-c3ccccc3)cc1)c1ccccc1-2

>  <logBB>


>  <Class>
-1

>  <MW>
498.21

>  <nHBAcc>
3

>  <nHBDon>
2

>  <SLogP>
6.51

>  <TopoPSA>
78.09

>  <MMFF94 Energy>
118.05

$$$$
Cc1nnc(C(C)C)n1C1CC2CCC(C1)N2CCC(NC(=O)C1CCC(F)(F)CC1)c1ccccc1
Actelion Java MolfileCreator 2.0

  0  0  0  0  0  0              0 V3000
M  V30 BEGIN CTAB
M  V30 COUNTS 78 82 0 0 0
M  V30 BEGIN ATOM
M  V30 1 F -4.1553 1.8363 7.9225 0
M  V30 2 C -3.3024 1.8161 6.869 0
M  V30 3 F -2.5318 2.9285 6.9729 0
M  V30 4 C -2.4165 0.5852 6.9606 0
M  V30 5 C -4.0945 1.8715 5.5742 0
M  V30 6 C -1.5093 0.4489 5.7398 0
M  V30 7 C -3.1836 1.7418 4.3564 0
M  V30 8 C -2.3102 0.4805 4.4294 0
M  V30 9 C -1.37 0.3932 3.229 0
M  V30 10 O -1.1726 1.3258 2.4574 0
M  V30 11 N -0.7651 -0.8345 3.0876 0
M  V30 12 C 0.1861 -1.1057 2.0188 0
M  V30 13 C 1.0997 -2.238 2.4576 0
M  V30 14 C -0.5425 -1.3525 0.6803 0
M  V30 15 C 2.3926 -1.9431 2.9201 0
M  V30 16 C 0.6775 -3.5773 2.459 0
M  V30 17 C 0.436 -1.4423 -0.4984 0
M  V30 18 C 3.2469 -2.9606 3.3486 0
M  V30 19 C 1.5341 -4.5936 2.887 0
M  V30 20 N -0.2458 -1.6965 -1.766 0
M  V30 21 C 2.8184 -4.2854 3.3293 0
M  V30 22 C 0.6331 -1.9753 -2.9077 0
M  V30 23 C -1.1666 -0.6714 -2.269 0
M  V30 24 C 1.5474 -0.7798 -3.2417 0
M  V30 25 C -0.4204 -2.2108 -3.9968 0
M  V30 26 C -0.458 0.6716 -2.5307 0
M  V30 27 C -1.6141 -1.3437 -3.575 0
M  V30 28 C 0.7444 0.5147 -3.4804 0
M  V30 29 N 1.5651 1.7142 -3.5979 0
M  V30 30 C 1.6781 2.5118 -4.7252 0
M  V30 31 C 2.3944 2.2911 -2.6582 0
M  V30 32 N 2.5612 3.4581 -4.4859 0
M  V30 33 C 0.9348 2.3339 -6.0184 0
M  V30 34 N 3.0005 3.3244 -3.2029 0
M  V30 35 C 2.6029 1.8589 -1.2575 0
M  V30 36 C 0.7432 3.6749 -6.7334 0
M  V30 37 C 1.6738 1.3546 -6.9307 0
M  V30 38 H -1.8012 0.6434 7.8656 0
M  V30 39 H -3.0414 -0.3102 7.0624 0
M  V30 40 H -4.8458 1.0726 5.5668 0
M  V30 41 H -4.6423 2.8192 5.5197 0
M  V30 42 H -0.94 -0.4844 5.8215 0
M  V30 43 H -0.7695 1.2602 5.7405 0
M  V30 44 H -2.5494 2.6352 4.2855 0
M  V30 45 H -3.7935 1.7218 3.4449 0
M  V30 46 H -2.9691 -0.398 4.3939 0
M  V30 47 H -0.9629 -1.5755 3.7468 0
M  V30 48 H 0.791 -0.197 1.8941 0
M  V30 49 H -1.1606 -2.2574 0.7292 0
M  V30 50 H -1.2393 -0.5235 0.507 0
M  V30 51 H 2.7444 -0.9134 2.9531 0
M  V30 52 H -0.3222 -3.8464 2.126 0
M  V30 53 H 1.0434 -0.5339 -0.5303 0
M  V30 54 H 1.1273 -2.2736 -0.3166 0
M  V30 55 H 4.2467 -2.7181 3.7003 0
M  V30 56 H 1.1983 -5.6276 2.8759 0
M  V30 57 H 3.4843 -5.0773 3.6623 0
M  V30 58 H 1.2332 -2.8787 -2.7537 0
M  V30 59 H -2.0315 -0.5211 -1.615 0
M  V30 60 H 2.1331 -1.0085 -4.1418 0
M  V30 61 H 2.2811 -0.6563 -2.4417 0
M  V30 62 H -0.0626 -1.9567 -4.9999 0
M  V30 63 H -0.7274 -3.264 -4.0126 0
M  V30 64 H -0.1606 1.1139 -1.5763 0
M  V30 65 H -1.171 1.3806 -2.9719 0
M  V30 66 H -2.4829 -1.9894 -3.3956 0
M  V30 67 H -1.8935 -0.6243 -4.3517 0
M  V30 68 H 0.3049 0.3785 -4.4733 0
M  V30 69 H -0.0694 1.9442 -5.8162 0
M  V30 70 H 3.1056 0.8912 -1.2062 0
M  V30 71 H 1.6653 1.8138 -0.7012 0
M  V30 72 H 3.2449 2.5791 -0.7379 0
M  V30 73 H 0.1541 3.545 -7.6477 0
M  V30 74 H 0.2135 4.3884 -6.092 0
M  V30 75 H 1.702 4.1259 -7.0136 0
M  V30 76 H 1.7868 0.3745 -6.455 0
M  V30 77 H 2.6778 1.7183 -7.178 0
M  V30 78 H 1.1266 1.2087 -7.8681 0
M  V30 END ATOM
M  V30 BEGIN BOND
M  V30 1 1 1 2
M  V30 2 1 2 3
M  V30 3 1 2 4
M  V30 4 1 2 5
M  V30 5 1 4 6
M  V30 6 1 5 7
M  V30 7 1 6 8
M  V30 8 1 8 9
M  V30 9 2 9 10
M  V30 10 1 9 11
M  V30 11 1 11 12
M  V30 12 1 12 13
M  V30 13 1 12 14
M  V30 14 2 13 15
M  V30 15 1 13 16
M  V30 16 1 14 17
M  V30 17 1 15 18
M  V30 18 2 16 19
M  V30 19 1 17 20
M  V30 20 2 18 21
M  V30 21 1 20 22
M  V30 22 1 20 23
M  V30 23 1 22 24
M  V30 24 1 22 25
M  V30 25 1 23 26
M  V30 26 1 23 27
M  V30 27 1 24 28
M  V30 28 1 28 29
M  V30 29 1 29 30
M  V30 30 1 29 31
M  V30 31 2 30 32
M  V30 32 1 30 33
M  V30 33 2 31 34
M  V30 34 1 31 35
M  V30 35 1 33 36
M  V30 36 1 33 37
M  V30 37 1 7 8
M  V30 38 1 19 21
M  V30 39 1 25 27
M  V30 40 1 26 28
M  V30 41 1 32 34
M  V30 42 1 4 38
M  V30 43 1 4 39
M  V30 44 1 5 40
M  V30 45 1 5 41
M  V30 46 1 6 42
M  V30 47 1 6 43
M  V30 48 1 7 44
M  V30 49 1 7 45
M  V30 50 1 8 46
M  V30 51 1 11 47
M  V30 52 1 12 48
M  V30 53 1 14 49
M  V30 54 1 14 50
M  V30 55 1 15 51
M  V30 56 1 16 52
M  V30 57 1 17 53
M  V30 58 1 17 54
M  V30 59 1 18 55
M  V30 60 1 19 56
M  V30 61 1 21 57
M  V30 62 1 22 58
M  V30 63 1 23 59
M  V30 64 1 24 60
M  V30 65 1 24 61
M  V30 66 1 25 62
M  V30 67 1 25 63
M  V30 68 1 26 64
M  V30 69 1 26 65
M  V30 70 1 27 66
M  V30 71 1 27 67
M  V30 72 1 28 68
M  V30 73 1 33 69
M  V30 74 1 35 70
M  V30 75 1 35 71
M  V30 76 1 35 72
M  V30 77 1 36 73
M  V30 78 1 36 74
M  V30 79 1 36 75
M  V30 80 1 37 76
M  V30 81 1 37 77
M  V30 82 1 37 78
M  V30 END BOND
M  V30 END CTAB
M  END
>  <level_0>
5868

>  <index>
5868

>  <NO.>
5869

>  <Name>
maraviroc

>  <SMILES>
Cc1nnc(C(C)C)n1C1CC2CCC(C1)N2CCC(NC(=O)C1CCC(F)(F)CC1)c1ccccc1

>  <logBB>


>  <Class>
-1

>  <MW>
513.33

>  <nHBAcc>
4

>  <nHBDon>
1

>  <SLogP>
5.95

>  <TopoPSA>
63.05

>  <MMFF94 Energy>
11.891

$$$$
Clc1ccc(C(Cn2ccnc2)OCc2ccc(Sc3ccccc3)cc2)c(Cl)c1
Actelion Java MolfileCreator 2.0

  0  0  0  0  0  0              0 V3000
M  V30 BEGIN CTAB
M  V30 COUNTS 50 53 0 0 0
M  V30 BEGIN ATOM
M  V30 1 Cl -3.4543 -4.7726 0.1642 0
M  V30 2 C -2.2648 -4.4213 -1.0399 0
M  V30 3 C -1.7584 -3.122 -1.2265 0
M  V30 4 C -1.8272 -5.4852 -1.8347 0
M  V30 5 C -0.8133 -2.9229 -2.2521 0
M  V30 6 C -2.2345 -1.9411 -0.3892 0 CFG=1
M  V30 7 C -0.8845 -5.261 -2.833 0
M  V30 8 C -0.3775 -3.9843 -3.0478 0
M  V30 9 O -1.227 -0.9238 -0.256 0
M  V30 10 C -3.5114 -1.2885 -0.96 0
M  V30 11 Cl -0.3494 -6.5699 -3.812 0
M  V30 12 C -0.2317 -1.2378 0.7201 0
M  V30 13 N -3.3879 -0.7986 -2.3197 0
M  V30 14 C 0.7887 -0.128 0.7767 0
M  V30 15 C -2.7405 0.3405 -2.7057 0
M  V30 16 C -3.9254 -1.3701 -3.4394 0
M  V30 17 C 1.2239 0.5197 -0.3874 0
M  V30 18 C 1.3724 0.2288 1.9995 0
M  V30 19 N -2.8112 0.5135 -4.0065 0
M  V30 20 C -3.5484 -0.544 -4.4726 0
M  V30 21 C 2.1977 1.5214 -0.326 0
M  V30 22 C 2.3464 1.2311 2.0592 0
M  V30 23 C 2.7545 1.8977 0.8993 0
M  V30 24 S 4.0133 3.1621 0.9171 0
M  V30 25 C 3.6308 4.1521 2.3522 0
M  V30 26 C 2.3211 4.5247 2.6786 0
M  V30 27 C 4.6851 4.6146 3.1482 0
M  V30 28 C 2.0683 5.3195 3.7996 0
M  V30 29 C 4.4327 5.4091 4.2694 0
M  V30 30 C 3.1239 5.7583 4.5964 0
M  V30 31 H -2.2235 -6.4855 -1.6793 0
M  V30 32 H -0.416 -1.9272 -2.4499 0
M  V30 33 H -2.4748 -2.2795 0.6257 0
M  V30 34 H 0.3504 -3.8026 -3.835 0
M  V30 35 H -3.7939 -0.4223 -0.3487 0
M  V30 36 H -4.3501 -1.994 -0.9443 0
M  V30 37 H 0.2776 -2.1741 0.4673 0
M  V30 38 H -0.7189 -1.3454 1.6963 0
M  V30 39 H -2.2321 0.9945 -2.0079 0
M  V30 40 H -4.5024 -2.2837 -3.417 0
M  V30 41 H 0.8038 0.2513 -1.3548 0
M  V30 42 H 1.0788 -0.2725 2.9193 0
M  V30 43 H -3.7701 -0.6532 -5.5263 0
M  V30 44 H 2.5119 2.0079 -1.247 0
M  V30 45 H 2.7894 1.4756 3.022 0
M  V30 46 H 1.4848 4.2108 2.0585 0
M  V30 47 H 5.7131 4.3566 2.9038 0
M  V30 48 H 1.0475 5.6018 4.0445 0
M  V30 49 H 5.2589 5.7583 4.8835 0
M  V30 50 H 2.9275 6.3796 5.4666 0
M  V30 END ATOM
M  V30 BEGIN BOND
M  V30 1 1 1 2
M  V30 2 2 2 3
M  V30 3 1 2 4
M  V30 4 1 3 5
M  V30 5 1 3 6
M  V30 6 2 4 7
M  V30 7 2 5 8
M  V30 8 1 6 9
M  V30 9 1 6 10
M  V30 10 1 7 11
M  V30 11 1 9 12
M  V30 12 1 10 13
M  V30 13 1 12 14
M  V30 14 1 13 15
M  V30 15 1 13 16
M  V30 16 2 14 17
M  V30 17 1 14 18
M  V30 18 2 15 19
M  V30 19 2 16 20
M  V30 20 1 17 21
M  V30 21 2 18 22
M  V30 22 2 21 23
M  V30 23 1 23 24
M  V30 24 1 24 25
M  V30 25 2 25 26
M  V30 26 1 25 27
M  V30 27 1 26 28
M  V30 28 2 27 29
M  V30 29 2 28 30
M  V30 30 1 7 8
M  V30 31 1 19 20
M  V30 32 1 22 23
M  V30 33 1 29 30
M  V30 34 1 4 31
M  V30 35 1 5 32
M  V30 36 1 6 33
M  V30 37 1 8 34
M  V30 38 1 10 35
M  V30 39 1 10 36
M  V30 40 1 12 37
M  V30 41 1 12 38
M  V30 42 1 15 39
M  V30 43 1 16 40
M  V30 44 1 17 41
M  V30 45 1 18 42
M  V30 46 1 20 43
M  V30 47 1 21 44
M  V30 48 1 22 45
M  V30 49 1 26 46
M  V30 50 1 27 47
M  V30 51 1 28 48
M  V30 52 1 29 49
M  V30 53 1 30 50
M  V30 END BOND
M  V30 BEGIN COLLECTION
M  V30 MDLV30/STERAC1 ATOMS=(1 6)
M  V30 END COLLECTION
M  V30 END CTAB
M  END
>  <level_0>
5872

>  <index>
5872

>  <NO.>
5873

>  <Name>
fenticonazole

>  <SMILES>
Clc1ccc(C(Cn2ccnc2)OCc2ccc(Sc3ccccc3)cc2)c(Cl)c1

>  <logBB>


>  <Class>
-1

>  <MW>
454.07

>  <nHBAcc>
3

>  <nHBDon>
0

>  <SLogP>
7.3

>  <TopoPSA>
27.05

>  <MMFF94 Energy>
65.03

$$$$
Clc1ccc(C(Cn2ccnc2)OCc2csc3c(Cl)cccc23)c(Cl)c1
Actelion Java MolfileCreator 2.0

  0  0  0  0  0  0              0 V3000
M  V30 BEGIN CTAB
M  V30 COUNTS 42 45 0 0 0
M  V30 BEGIN ATOM
M  V30 1 Cl -1.6749 3.1003 2.6809 0
M  V30 2 C -2.0506 2.5087 1.1007 0
M  V30 3 C -1.113 1.7921 0.3348 0
M  V30 4 C -3.3304 2.7764 0.6053 0
M  V30 5 C -1.4972 1.3693 -0.9533 0
M  V30 6 C 0.2949 1.5057 0.8418 0 CFG=1
M  V30 7 C -3.6857 2.3381 -0.6665 0
M  V30 8 C -2.7745 1.6381 -1.4494 0
M  V30 9 O 0.8405 0.3054 0.2674 0
M  V30 10 C 1.2716 2.6688 0.5674 0
M  V30 11 Cl -5.2596 2.6702 -1.2756 0
M  V30 12 C 0.3787 -0.8868 0.9112 0
M  V30 13 N 1.4075 3.031 -0.8302 0
M  V30 14 C 0.843 -2.1217 0.193 0
M  V30 15 C 2.1315 2.3505 -1.7672 0
M  V30 16 C 0.8699 4.1307 -1.4392 0
M  V30 17 C 0.768 -3.4608 0.7479 0
M  V30 18 C 1.3765 -2.1371 -1.0799 0
M  V30 19 N 2.0636 2.9358 -2.9417 0
M  V30 20 C 1.2827 4.0458 -2.7486 0
M  V30 21 C 1.2653 -4.4284 -0.1382 0
M  V30 22 C 0.2807 -3.9031 2.0073 0
M  V30 23 S 1.7984 -3.6951 -1.6065 0
M  V30 24 C 1.2838 -5.7968 0.2144 0
M  V30 25 C 0.299 -5.2563 2.3537 0
M  V30 26 Cl 1.8905 -7.0091 -0.8538 0
M  V30 27 C 0.7977 -6.1938 1.4632 0
M  V30 28 H -4.0478 3.3289 1.2072 0
M  V30 29 H -0.7935 0.8343 -1.5917 0
M  V30 30 H 0.274 1.3538 1.9279 0
M  V30 31 H -3.0445 1.3039 -2.4486 0
M  V30 32 H 2.2779 2.4005 0.9127 0
M  V30 33 H 0.9651 3.5719 1.1078 0
M  V30 34 H -0.7168 -0.8961 0.9487 0
M  V30 35 H 0.7662 -0.8956 1.9369 0
M  V30 36 H 2.6756 1.4411 -1.5455 0
M  V30 37 H 0.2559 4.8528 -0.9196 0
M  V30 38 H 1.543 -1.2897 -1.7328 0
M  V30 39 H 1.0614 4.7255 -3.5613 0
M  V30 40 H -0.116 -3.1848 2.7216 0
M  V30 41 H -0.0785 -5.5734 3.3231 0
M  V30 42 H 0.8082 -7.2453 1.7414 0
M  V30 END ATOM
M  V30 BEGIN BOND
M  V30 1 1 1 2
M  V30 2 2 2 3
M  V30 3 1 2 4
M  V30 4 1 3 5
M  V30 5 1 3 6
M  V30 6 2 4 7
M  V30 7 2 5 8
M  V30 8 1 6 9
M  V30 9 1 6 10
M  V30 10 1 7 11
M  V30 11 1 9 12
M  V30 12 1 10 13
M  V30 13 1 12 14
M  V30 14 1 13 15
M  V30 15 1 13 16
M  V30 16 1 14 17
M  V30 17 2 14 18
M  V30 18 2 15 19
M  V30 19 2 16 20
M  V30 20 2 17 21
M  V30 21 1 17 22
M  V30 22 1 18 23
M  V30 23 1 21 24
M  V30 24 2 22 25
M  V30 25 1 24 26
M  V30 26 2 24 27
M  V30 27 1 7 8
M  V30 28 1 19 20
M  V30 29 1 21 23
M  V30 30 1 25 27
M  V30 31 1 4 28
M  V30 32 1 5 29
M  V30 33 1 6 30
M  V30 34 1 8 31
M  V30 35 1 10 32
M  V30 36 1 10 33
M  V30 37 1 12 34
M  V30 38 1 12 35
M  V30 39 1 15 36
M  V30 40 1 16 37
M  V30 41 1 18 38
M  V30 42 1 20 39
M  V30 43 1 22 40
M  V30 44 1 25 41
M  V30 45 1 27 42
M  V30 END BOND
M  V30 BEGIN COLLECTION
M  V30 MDLV30/STERAC1 ATOMS=(1 6)
M  V30 END COLLECTION
M  V30 END CTAB
M  END
>  <level_0>
5873

>  <index>
5873

>  <NO.>
5874

>  <Name>
sertaconazole

>  <SMILES>
Clc1ccc(C(Cn2ccnc2)OCc2csc3c(Cl)cccc23)c(Cl)c1

>  <logBB>


>  <Class>
-1

>  <MW>
436.0

>  <nHBAcc>
3

>  <nHBDon>
0

>  <SLogP>
7.02

>  <TopoPSA>
27.05

>  <MMFF94 Energy>
50.247

$$$$
Clc1ccc(CCC(Cn2ccnc2)Sc2c(Cl)cccc2Cl)cc1
Actelion Java MolfileCreator 2.0

  0  0  0  0  0  0              0 V3000
M  V30 BEGIN CTAB
M  V30 COUNTS 42 44 0 0 0
M  V30 BEGIN ATOM
M  V30 1 Cl 1.6639 2.4134 -2.3301 0
M  V30 2 C 0.6717 1.3912 -3.318 0
M  V30 3 C -0.657 1.0622 -2.9808 0
M  V30 4 C 1.2614 0.8954 -4.4883 0
M  V30 5 S -1.4178 1.7085 -1.4783 0
M  V30 6 C -1.3784 0.2439 -3.8754 0
M  V30 7 C 0.5379 0.0747 -5.3483 0
M  V30 8 C -1.3872 0.1949 -0.4216 0 CFG=2
M  V30 9 Cl -3.0341 -0.2022 -3.6109 0
M  V30 10 C -0.7812 -0.2473 -5.0436 0
M  V30 11 C -2.5799 0.2792 0.5476 0
M  V30 12 C -0.0188 0.0074 0.2635 0
M  V30 13 N -2.7311 -0.9065 1.3703 0
M  V30 14 C 0.383 1.0956 1.2671 0
M  V30 15 C -2.4907 -0.9897 2.7114 0
M  V30 16 C -3.1583 -2.1339 0.9477 0
M  V30 17 C 1.7094 0.778 1.9165 0
M  V30 18 N -2.6979 -2.2071 3.1593 0
M  V30 19 C -3.1212 -2.9262 2.0715 0
M  V30 20 C 1.7814 -0.1504 2.9657 0
M  V30 21 C 2.8865 1.3893 1.4637 0
M  V30 22 C 3.0097 -0.4564 3.5557 0
M  V30 23 C 4.1144 1.0831 2.0544 0
M  V30 24 C 4.1707 0.1621 3.0979 0
M  V30 25 Cl 5.6845 -0.2158 3.8235 0
M  V30 26 H 2.2897 1.1519 -4.7358 0
M  V30 27 H 0.9984 -0.3061 -6.2571 0
M  V30 28 H -1.5433 -0.6745 -1.0702 0
M  V30 29 H -1.3462 -0.88 -5.7254 0
M  V30 30 H -2.5049 1.1429 1.2186 0
M  V30 31 H -3.5233 0.3811 -0.0048 0
M  V30 32 H 0.7612 -0.0841 -0.5036 0
M  V30 33 H -0.0215 -0.9653 0.7732 0
M  V30 34 H 0.4455 2.0745 0.7786 0
M  V30 35 H -0.3679 1.2009 2.0575 0
M  V30 36 H -2.1652 -0.1487 3.3103 0
M  V30 37 H -3.4404 -2.3406 -0.0753 0
M  V30 38 H -3.3796 -3.9739 2.1561 0
M  V30 39 H 0.8823 -0.6451 3.329 0
M  V30 40 H 2.8558 2.1089 0.6482 0
M  V30 41 H 3.0522 -1.1773 4.3677 0
M  V30 42 H 5.0197 1.5652 1.6957 0
M  V30 END ATOM
M  V30 BEGIN BOND
M  V30 1 1 1 2
M  V30 2 2 2 3
M  V30 3 1 2 4
M  V30 4 1 3 5
M  V30 5 1 3 6
M  V30 6 2 4 7
M  V30 7 1 5 8
M  V30 8 1 6 9
M  V30 9 2 6 10
M  V30 10 1 8 11
M  V30 11 1 8 12
M  V30 12 1 11 13
M  V30 13 1 12 14
M  V30 14 1 13 15
M  V30 15 1 13 16
M  V30 16 1 14 17
M  V30 17 2 15 18
M  V30 18 2 16 19
M  V30 19 2 17 20
M  V30 20 1 17 21
M  V30 21 1 20 22
M  V30 22 2 21 23
M  V30 23 2 22 24
M  V30 24 1 24 25
M  V30 25 1 7 10
M  V30 26 1 18 19
M  V30 27 1 23 24
M  V30 28 1 4 26
M  V30 29 1 7 27
M  V30 30 1 8 28
M  V30 31 1 10 29
M  V30 32 1 11 30
M  V30 33 1 11 31
M  V30 34 1 12 32
M  V30 35 1 12 33
M  V30 36 1 14 34
M  V30 37 1 14 35
M  V30 38 1 15 36
M  V30 39 1 16 37
M  V30 40 1 19 38
M  V30 41 1 20 39
M  V30 42 1 21 40
M  V30 43 1 22 41
M  V30 44 1 23 42
M  V30 END BOND
M  V30 BEGIN COLLECTION
M  V30 MDLV30/STERAC1 ATOMS=(1 8)
M  V30 END COLLECTION
M  V30 END CTAB
M  END
>  <level_0>
5874

>  <index>
5874

>  <NO.>
5875

>  <Name>
butoconazole

>  <SMILES>
Clc1ccc(CCC(Cn2ccnc2)Sc2c(Cl)cccc2Cl)cc1

>  <logBB>


>  <Class>
-1

>  <MW>
410.02

>  <nHBAcc>
2

>  <nHBDon>
0

>  <SLogP>
6.64

>  <TopoPSA>
17.82

>  <MMFF94 Energy>
59.973

$$$$
Clc1ccc(CSC(Cn2ccnc2)c2ccc(Cl)cc2Cl)cc1
Actelion Java MolfileCreator 2.0

  0  0  0  0  0  0              0 V3000
M  V30 BEGIN CTAB
M  V30 COUNTS 39 41 0 0 0
M  V30 BEGIN ATOM
M  V30 1 Cl 1.5876 -1.6713 2.0894 0
M  V30 2 C 0.3643 -0.7895 2.9342 0
M  V30 3 C -0.4766 0.1394 2.2912 0
M  V30 4 C 0.2522 -1.0324 4.3078 0
M  V30 5 C -1.4237 0.8246 3.083 0
M  V30 6 C -0.3755 0.441 0.7982 0 CFG=1
M  V30 7 C -0.6969 -0.348 5.0592 0
M  V30 8 C -1.5348 0.5807 4.4538 0
M  V30 9 S -1.9957 0.1101 -0.0374 0
M  V30 10 C 0.0798 1.895 0.5605 0
M  V30 11 Cl -0.832 -0.6488 6.7469 0
M  V30 12 C -1.6994 -1.5799 -0.6551 0
M  V30 13 N 0.5127 2.1482 -0.8008 0
M  V30 14 C -0.6217 -1.6642 -1.7088 0
M  V30 15 C -0.2169 2.7646 -1.7759 0
M  V30 16 C 1.7373 1.8453 -1.3269 0
M  V30 17 C -0.704 -0.9149 -2.8932 0
M  V30 18 C 0.481 -2.5125 -1.5241 0
M  V30 19 N 0.4628 2.8563 -2.8966 0
M  V30 20 C 1.6803 2.2855 -2.6287 0
M  V30 21 C 0.3095 -0.9827 -3.8519 0
M  V30 22 C 1.4933 -2.5828 -2.4844 0
M  V30 23 C 1.4061 -1.8126 -3.6414 0
M  V30 24 Cl 2.6621 -1.8876 -4.8141 0
M  V30 25 H 0.9068 -1.7532 4.7917 0
M  V30 26 H -2.0993 1.5529 2.6345 0
M  V30 27 H 0.364 -0.2064 0.3277 0
M  V30 28 H -2.2787 1.1165 5.039 0
M  V30 29 H -0.7038 2.6226 0.8062 0
M  V30 30 H 0.9401 2.1338 1.1998 0
M  V30 31 H -2.6353 -1.9538 -1.0851 0
M  V30 32 H -1.4689 -2.2228 0.2012 0
M  V30 33 H -1.2287 3.1182 -1.6238 0
M  V30 34 H 2.5175 1.3529 -0.7639 0
M  V30 35 H -1.5484 -0.2512 -3.0724 0
M  V30 36 H 0.5672 -3.121 -0.6262 0
M  V30 37 H 2.4504 2.2211 -3.3864 0
M  V30 38 H 0.2398 -0.3731 -4.7491 0
M  V30 39 H 2.3461 -3.2363 -2.3223 0
M  V30 END ATOM
M  V30 BEGIN BOND
M  V30 1 1 1 2
M  V30 2 2 2 3
M  V30 3 1 2 4
M  V30 4 1 3 5
M  V30 5 1 3 6
M  V30 6 2 4 7
M  V30 7 2 5 8
M  V30 8 1 6 9
M  V30 9 1 6 10
M  V30 10 1 7 11
M  V30 11 1 9 12
M  V30 12 1 10 13
M  V30 13 1 12 14
M  V30 14 1 13 15
M  V30 15 1 13 16
M  V30 16 2 14 17
M  V30 17 1 14 18
M  V30 18 2 15 19
M  V30 19 2 16 20
M  V30 20 1 17 21
M  V30 21 2 18 22
M  V30 22 2 21 23
M  V30 23 1 23 24
M  V30 24 1 7 8
M  V30 25 1 19 20
M  V30 26 1 22 23
M  V30 27 1 4 25
M  V30 28 1 5 26
M  V30 29 1 6 27
M  V30 30 1 8 28
M  V30 31 1 10 29
M  V30 32 1 10 30
M  V30 33 1 12 31
M  V30 34 1 12 32
M  V30 35 1 15 33
M  V30 36 1 16 34
M  V30 37 1 17 35
M  V30 38 1 18 36
M  V30 39 1 20 37
M  V30 40 1 21 38
M  V30 41 1 22 39
M  V30 END BOND
M  V30 BEGIN COLLECTION
M  V30 MDLV30/STERAC1 ATOMS=(1 6)
M  V30 END COLLECTION
M  V30 END CTAB
M  END
>  <level_0>
5875

>  <index>
5875

>  <NO.>
5876

>  <Name>
sulconazole

>  <SMILES>
Clc1ccc(CSC(Cn2ccnc2)c2ccc(Cl)cc2Cl)cc1

>  <logBB>


>  <Class>
-1

>  <MW>
396.0

>  <nHBAcc>
2

>  <nHBDon>
0

>  <SLogP>
6.52

>  <TopoPSA>
17.82

>  <MMFF94 Energy>
43.003

$$$$
Cn1nnnc1SCC1=C(C(=O)O)N2C(=O)[C@@H](NC(=O)[C@H](OC=O)c3ccccc3)[C@H]2SC1
Actelion Java MolfileCreator 2.0

  0  0  0  0  0  0              0 V3000
M  V30 BEGIN CTAB
M  V30 COUNTS 51 54 0 0 0
M  V30 BEGIN ATOM
M  V30 1 S -0.743 1.156 -0.8256 0
M  V30 2 C 0.5007 2.4482 -0.5541 0 CFG=1
M  V30 3 C -2.0235 2.0749 0.0794 0
M  V30 4 N 0.6865 2.5897 0.873 0
M  V30 5 C 2.0123 2.0667 -0.632 0 CFG=1
M  V30 6 C -1.5911 2.4023 1.497 0
M  V30 7 C -0.297 2.6585 1.8125 0
M  V30 8 C 2.0175 2.3713 0.9018 0
M  V30 9 N 2.3721 0.6672 -0.9917 0
M  V30 10 C -2.7285 2.4426 2.4994 0
M  V30 11 C 0.1223 2.9705 3.2092 0
M  V30 12 O 2.8212 2.3049 1.802 0
M  V30 13 C 2.3235 0.2312 -2.3024 0
M  V30 14 S -2.9434 0.8303 3.3166 0
M  V30 15 O -0.1702 2.3612 4.2199 0
M  V30 16 O 0.8617 4.0948 3.2414 0
M  V30 17 O 2.0103 0.9877 -3.2216 0
M  V30 18 C 2.7044 -1.2574 -2.507 0 CFG=2
M  V30 19 C -3.8 -0.0591 2.1196 0
M  V30 20 O 2.8264 -1.5998 -3.8897 0
M  V30 21 C 1.6625 -2.184 -1.8981 0
M  V30 22 N -4.8614 0.3305 1.4531 0
M  V30 23 N -3.4372 -1.2981 1.6815 0
M  V30 24 C 3.9533 -1.1261 -4.471 0
M  V30 25 C 0.3236 -2.1384 -2.3189 0
M  V30 26 C 2.0262 -3.1098 -0.9071 0
M  V30 27 N -5.1533 -0.6971 0.5857 0
M  V30 28 N -4.2831 -1.6918 0.712 0
M  V30 29 C -2.3223 -2.1183 2.0624 0
M  V30 30 O 4.8647 -0.5388 -3.9101 0
M  V30 31 C -0.6301 -2.9844 -1.7506 0
M  V30 32 C 1.0708 -3.9593 -0.3447 0
M  V30 33 C -0.2559 -3.8957 -0.7659 0
M  V30 34 H 0.2727 3.4011 -1.0466 0
M  V30 35 H -2.9173 1.4514 0.0592 0
M  V30 36 H -2.2689 3.0 -0.4541 0
M  V30 37 H 2.6209 2.7855 -1.1944 0
M  V30 38 H 2.6068 0.0019 -0.2621 0
M  V30 39 H -2.5327 3.1885 3.2773 0
M  V30 40 H -3.6613 2.7625 2.021 0
M  V30 41 H 1.1516 4.1649 4.1744 0
M  V30 42 H 3.6622 -1.4289 -1.9959 0
M  V30 43 H 3.9367 -1.3707 -5.5443 0
M  V30 44 H 0.0134 -1.438 -3.0938 0
M  V30 45 H 3.0584 -3.1871 -0.5709 0
M  V30 46 H -2.4216 -3.1049 1.6024 0
M  V30 47 H -1.4034 -1.6386 1.7163 0
M  V30 48 H -2.3155 -2.2269 3.1496 0
M  V30 49 H -1.6647 -2.9342 -2.083 0
M  V30 50 H 1.3644 -4.6794 0.4152 0
M  V30 51 H -0.998 -4.564 -0.3365 0
M  V30 END ATOM
M  V30 BEGIN BOND
M  V30 1 1 1 2
M  V30 2 1 1 3
M  V30 3 1 2 4
M  V30 4 1 2 5
M  V30 5 1 3 6
M  V30 6 1 4 7
M  V30 7 1 4 8
M  V30 8 1 5 9
M  V30 9 1 6 10
M  V30 10 1 7 11
M  V30 11 2 8 12
M  V30 12 1 9 13
M  V30 13 1 10 14
M  V30 14 2 11 15
M  V30 15 1 11 16
M  V30 16 2 13 17
M  V30 17 1 13 18
M  V30 18 1 14 19
M  V30 19 1 18 20
M  V30 20 1 18 21
M  V30 21 2 19 22
M  V30 22 1 19 23
M  V30 23 1 20 24
M  V30 24 2 21 25
M  V30 25 1 21 26
M  V30 26 1 22 27
M  V30 27 1 23 28
M  V30 28 1 23 29
M  V30 29 2 24 30
M  V30 30 1 25 31
M  V30 31 2 26 32
M  V30 32 2 31 33
M  V30 33 1 5 8
M  V30 34 2 6 7
M  V30 35 2 27 28
M  V30 36 1 32 33
M  V30 37 1 2 34
M  V30 38 1 3 35
M  V30 39 1 3 36
M  V30 40 1 5 37
M  V30 41 1 9 38
M  V30 42 1 10 39
M  V30 43 1 10 40
M  V30 44 1 16 41
M  V30 45 1 18 42
M  V30 46 1 24 43
M  V30 47 1 25 44
M  V30 48 1 26 45
M  V30 49 1 29 46
M  V30 50 1 29 47
M  V30 51 1 29 48
M  V30 52 1 31 49
M  V30 53 1 32 50
M  V30 54 1 33 51
M  V30 END BOND
M  V30 BEGIN COLLECTION
M  V30 MDLV30/STEABS ATOMS=(3 2 5 18)
M  V30 END COLLECTION
M  V30 END CTAB
M  END
>  <level_0>
5880

>  <index>
5880

>  <NO.>
5881

>  <Name>
cefamandole nafate

>  <SMILES>
Cn1nnnc1SCC1=C(C(=O)O)N2C(=O)[C@@H](NC(=O)[C@H](OC=O)c3ccccc3)[C@H]2SC1

>  <logBB>


>  <Class>
-1

>  <MW>
490.07

>  <nHBAcc>
10

>  <nHBDon>
2

>  <SLogP>
-0.04

>  <TopoPSA>
156.61

>  <MMFF94 Energy>
29.727

$$$$
N=C(N)N
Actelion Java MolfileCreator 2.0

  0  0  0  0  0  0              0 V3000
M  V30 BEGIN CTAB
M  V30 COUNTS 9 8 0 0 0
M  V30 BEGIN ATOM
M  V30 1 N 0.1406 -1.5483 0.0 0
M  V30 2 C -0.0366 -0.2805 0.0333 0
M  V30 3 N 0.6452 0.5977 -0.7065 0
M  V30 4 N -0.9482 0.2648 0.8399 0
M  V30 5 H 0.8754 -1.7667 -0.6735 0
M  V30 6 H 0.4676 1.5875 -0.6434 0
M  V30 7 H 1.3592 0.2947 -1.3514 0
M  V30 8 H -1.1268 1.2515 0.9044 0
M  V30 9 H -1.4858 -0.368 1.4169 0
M  V30 END ATOM
M  V30 BEGIN BOND
M  V30 1 2 1 2
M  V30 2 1 2 3
M  V30 3 1 2 4
M  V30 4 1 1 5
M  V30 5 1 3 6
M  V30 6 1 3 7
M  V30 7 1 4 8
M  V30 8 1 4 9
M  V30 END BOND
M  V30 END CTAB
M  END
>  <level_0>
5888

>  <index>
5888

>  <NO.>
5889

>  <Name>
guanidine

>  <SMILES>
N=C(N)N

>  <logBB>


>  <Class>
-1

>  <MW>
59.05

>  <nHBAcc>
1

>  <nHBDon>
3

>  <SLogP>
-1.16

>  <TopoPSA>
75.89

>  <MMFF94 Energy>
-154.22

$$$$
NC(CCC(=O)NC(CS)C(=O)NCC(=O)O)C(=O)O
Actelion Java MolfileCreator 2.0

  0  0  0  0  0  0              0 V3000
M  V30 BEGIN CTAB
M  V30 COUNTS 37 36 0 0 0
M  V30 BEGIN ATOM
M  V30 1 S -0.2376 1.744 4.2055 0
M  V30 2 C -1.1863 0.2058 3.9063 0
M  V30 3 C -0.7583 -0.5336 2.6297 0
M  V30 4 N -0.716 0.3699 1.4707 0
M  V30 5 C 0.5644 -1.3104 2.8374 0
M  V30 6 C -1.0086 -0.0285 0.1914 0
M  V30 7 O 0.9895 -1.6285 3.9464 0
M  V30 8 N 1.1509 -1.7694 1.6822 0
M  V30 9 O -1.2573 -1.1957 -0.0878 0
M  V30 10 C -0.9153 1.0902 -0.8258 0
M  V30 11 C 2.3766 -2.5437 1.6903 0
M  V30 12 C -1.4397 0.6624 -2.1971 0
M  V30 13 C 2.9711 -2.604 0.2959 0
M  V30 14 C -1.4654 1.8091 -3.2131 0
M  V30 15 O 2.6749 -1.8957 -0.6551 0
M  V30 16 O 3.9378 -3.5363 0.1798 0
M  V30 17 N -2.2814 1.3889 -4.3785 0
M  V30 18 C -0.054 2.1742 -3.6934 0
M  V30 19 O 0.4538 1.8593 -4.7592 0
M  V30 20 O 0.6262 2.9364 -2.815 0
M  V30 21 H -0.7172 1.9766 5.437 0
M  V30 22 H -1.0983 -0.4347 4.7896 0
M  V30 23 H -2.2377 0.5018 3.8198 0
M  V30 24 H -1.5118 -1.3049 2.4206 0
M  V30 25 H -0.38 1.3124 1.6412 0
M  V30 26 H 0.6706 -1.6311 0.795 0
M  V30 27 H 0.1375 1.3842 -0.8845 0
M  V30 28 H -1.4896 1.9468 -0.4536 0
M  V30 29 H 2.1239 -3.554 2.0254 0
M  V30 30 H 3.0944 -2.086 2.377 0
M  V30 31 H -2.4564 0.2662 -2.0676 0
M  V30 32 H -0.8287 -0.1675 -2.577 0
M  V30 33 H -1.9345 2.7053 -2.7924 0
M  V30 34 H 4.2326 -3.4628 -0.7523 0
M  V30 35 H -2.2355 2.1231 -5.0878 0
M  V30 36 H -1.8183 0.5885 -4.8176 0
M  V30 37 H 1.4886 3.0902 -3.257 0
M  V30 END ATOM
M  V30 BEGIN BOND
M  V30 1 1 1 2
M  V30 2 1 2 3
M  V30 3 1 3 4
M  V30 4 1 3 5
M  V30 5 1 4 6
M  V30 6 2 5 7
M  V30 7 1 5 8
M  V30 8 2 6 9
M  V30 9 1 6 10
M  V30 10 1 8 11
M  V30 11 1 10 12
M  V30 12 1 11 13
M  V30 13 1 12 14
M  V30 14 2 13 15
M  V30 15 1 13 16
M  V30 16 1 14 17
M  V30 17 1 14 18
M  V30 18 2 18 19
M  V30 19 1 18 20
M  V30 20 1 1 21
M  V30 21 1 2 22
M  V30 22 1 2 23
M  V30 23 1 3 24
M  V30 24 1 4 25
M  V30 25 1 8 26
M  V30 26 1 10 27
M  V30 27 1 10 28
M  V30 28 1 11 29
M  V30 29 1 11 30
M  V30 30 1 12 31
M  V30 31 1 12 32
M  V30 32 1 14 33
M  V30 33 1 16 34
M  V30 34 1 17 35
M  V30 35 1 17 36
M  V30 36 1 20 37
M  V30 END BOND
M  V30 END CTAB
M  END
>  <level_0>
5894

>  <index>
5894

>  <NO.>
5895

>  <Name>
gamma-glutamylcysteinylglycine

>  <SMILES>
NC(CCC(=O)NC(CS)C(=O)NCC(=O)O)C(=O)O

>  <logBB>


>  <Class>
-1

>  <MW>
307.08

>  <nHBAcc>
6

>  <nHBDon>
6

>  <SLogP>
-2.21

>  <TopoPSA>
158.82

>  <MMFF94 Energy>
21.206

$$$$
NC(CSSCC(N)C(=O)O)C(=O)O
Actelion Java MolfileCreator 2.0

  0  0  0  0  0  0              0 V3000
M  V30 BEGIN CTAB
M  V30 COUNTS 26 25 0 0 0
M  V30 BEGIN ATOM
M  V30 1 S -0.4887 -1.5484 -0.1629 0
M  V30 2 S -2.1772 -0.4152 -0.4731 0
M  V30 3 C 0.0366 -1.0089 1.5045 0
M  V30 4 C -1.5111 1.1625 -1.1251 0
M  V30 5 C 1.2983 -1.7524 1.9661 0
M  V30 6 C -0.848 1.0432 -2.5049 0
M  V30 7 N 1.1177 -3.2201 2.0753 0
M  V30 8 C 1.6856 -1.184 3.3303 0
M  V30 9 N -1.7492 0.5023 -3.5503 0
M  V30 10 C -0.386 2.4438 -2.9035 0
M  V30 11 O 1.3226 -1.5955 4.422 0
M  V30 12 O 2.4658 -0.0875 3.2408 0
M  V30 13 O -1.0253 3.2721 -3.5343 0
M  V30 14 O 0.8396 2.7472 -2.4291 0
M  V30 15 H -0.7852 -1.1859 2.2085 0
M  V30 16 H 0.2302 0.0693 1.4778 0
M  V30 17 H -0.8139 1.58 -0.3895 0
M  V30 18 H -2.3542 1.8624 -1.1765 0
M  V30 19 H 2.1312 -1.5748 1.2755 0
M  V30 20 H 0.036 0.3976 -2.4692 0
M  V30 21 H 0.5014 -3.4177 2.8675 0
M  V30 22 H 0.6276 -3.5535 1.2439 0
M  V30 23 H -2.4846 1.1867 -3.7399 0
M  V30 24 H -2.2165 -0.3268 -3.1803 0
M  V30 25 H 2.6563 0.1418 4.1755 0
M  V30 26 H 1.0133 3.6447 -2.7851 0
M  V30 END ATOM
M  V30 BEGIN BOND
M  V30 1 1 1 2
M  V30 2 1 1 3
M  V30 3 1 2 4
M  V30 4 1 3 5
M  V30 5 1 4 6
M  V30 6 1 5 7
M  V30 7 1 5 8
M  V30 8 1 6 9
M  V30 9 1 6 10
M  V30 10 2 8 11
M  V30 11 1 8 12
M  V30 12 2 10 13
M  V30 13 1 10 14
M  V30 14 1 3 15
M  V30 15 1 3 16
M  V30 16 1 4 17
M  V30 17 1 4 18
M  V30 18 1 5 19
M  V30 19 1 6 20
M  V30 20 1 7 21
M  V30 21 1 7 22
M  V30 22 1 9 23
M  V30 23 1 9 24
M  V30 24 1 12 25
M  V30 25 1 14 26
M  V30 END BOND
M  V30 END CTAB
M  END
>  <level_0>
5895

>  <index>
5895

>  <NO.>
5896

>  <Name>
l-cystine

>  <SMILES>
NC(CSSCC(N)C(=O)O)C(=O)O

>  <logBB>


>  <Class>
-1

>  <MW>
240.02

>  <nHBAcc>
6

>  <nHBDon>
4

>  <SLogP>
-0.81

>  <TopoPSA>
126.64

>  <MMFF94 Energy>
69.105

$$$$
NC(Cn1ccc(=O)c(O)c1)C(=O)O
Actelion Java MolfileCreator 2.0

  0  0  0  0  0  0              0 V3000
M  V30 BEGIN CTAB
M  V30 COUNTS 24 24 0 0 0
M  V30 BEGIN ATOM
M  V30 1 O -1.5754 -0.2362 -3.9423 0
M  V30 2 C -1.1777 0.0803 -2.8256 0
M  V30 3 C 0.1788 0.6782 -2.5809 0
M  V30 4 C -2.0503 -0.1248 -1.6419 0
M  V30 5 O 1.0219 0.9016 -3.6499 0
M  V30 6 C 0.5031 0.9631 -1.3087 0
M  V30 7 C -1.5805 0.2101 -0.4346 0
M  V30 8 N -0.3174 0.74 -0.2046 0
M  V30 9 C 0.129 1.0934 1.1675 0
M  V30 10 C 0.8478 -0.064 1.8935 0 CFG=2
M  V30 11 N 1.9583 -0.6633 1.0986 0
M  V30 12 C -0.1653 -1.1264 2.3269 0
M  V30 13 O -1.2816 -0.9253 2.7787 0
M  V30 14 O 0.3049 -2.3916 2.2268 0
M  V30 15 H -3.0362 -0.5336 -1.81 0
M  V30 16 H 1.8474 1.2881 -3.3178 0
M  V30 17 H 1.4683 1.3933 -1.0574 0
M  V30 18 H -2.2004 0.0839 0.4499 0
M  V30 19 H -0.7311 1.4394 1.7553 0
M  V30 20 H 0.8112 1.9522 1.1099 0
M  V30 21 H 1.2882 0.3217 2.8205 0
M  V30 22 H 2.2158 -1.5394 1.5646 0
M  V30 23 H 1.5496 -0.9741 0.2125 0
M  V30 24 H -0.4345 -2.9505 2.5476 0
M  V30 END ATOM
M  V30 BEGIN BOND
M  V30 1 2 1 2
M  V30 2 1 2 3
M  V30 3 1 2 4
M  V30 4 1 3 5
M  V30 5 2 3 6
M  V30 6 2 4 7
M  V30 7 1 6 8
M  V30 8 1 8 9
M  V30 9 1 9 10
M  V30 10 1 10 11
M  V30 11 1 10 12
M  V30 12 2 12 13
M  V30 13 1 12 14
M  V30 14 1 7 8
M  V30 15 1 4 15
M  V30 16 1 5 16
M  V30 17 1 6 17
M  V30 18 1 7 18
M  V30 19 1 9 19
M  V30 20 1 9 20
M  V30 21 1 10 21
M  V30 22 1 11 22
M  V30 23 1 11 23
M  V30 24 1 14 24
M  V30 END BOND
M  V30 BEGIN COLLECTION
M  V30 MDLV30/STERAC1 ATOMS=(1 10)
M  V30 END COLLECTION
M  V30 END CTAB
M  END
>  <level_0>
5896

>  <index>
5896

>  <NO.>
5897

>  <Name>
mimosine

>  <SMILES>
NC(Cn1ccc(=O)c(O)c1)C(=O)O

>  <logBB>


>  <Class>
-1

>  <MW>
198.06

>  <nHBAcc>
4

>  <nHBDon>
3

>  <SLogP>
-1.03

>  <TopoPSA>
105.55

>  <MMFF94 Energy>
84.497

$$$$
NCCCNCCCCNCCCN
Actelion Java MolfileCreator 2.0

  0  0  0  0  0  0              0 V3000
M  V30 BEGIN CTAB
M  V30 COUNTS 40 39 0 0 0
M  V30 BEGIN ATOM
M  V30 1 N 2.1352 1.0671 1.9826 0
M  V30 2 C 3.3357 1.8639 2.2441 0
M  V30 3 C 2.4835 -0.3119 1.6375 0
M  V30 4 C 2.9964 3.2816 2.7179 0
M  V30 5 C 1.2355 -1.1628 1.3784 0
M  V30 6 C 2.3086 4.1289 1.6487 0
M  V30 7 C 0.4667 -0.7514 0.1185 0
M  V30 8 N 2.1243 5.4978 2.1245 0
M  V30 9 C -0.7161 -1.6891 -0.1344 0
M  V30 10 N -1.4215 -1.2718 -1.3473 0
M  V30 11 C -2.566 -2.1512 -1.614 0
M  V30 12 C -3.291 -1.6799 -2.8774 0
M  V30 13 C -4.547 -2.4992 -3.1763 0
M  V30 14 N -4.2328 -3.8869 -3.4991 0
M  V30 15 H 1.6056 1.483 1.2185 0
M  V30 16 H 3.9294 1.3821 3.0305 0
M  V30 17 H 3.9601 1.9173 1.3442 0
M  V30 18 H 3.1311 -0.3344 0.7529 0
M  V30 19 H 3.0374 -0.7663 2.4677 0
M  V30 20 H 3.9324 3.77 3.0192 0
M  V30 21 H 2.3682 3.2291 3.6168 0
M  V30 22 H 0.5701 -1.1201 2.25 0
M  V30 23 H 1.5516 -2.2086 1.2772 0
M  V30 24 H 1.3303 3.7101 1.3917 0
M  V30 25 H 2.9143 4.1501 0.7367 0
M  V30 26 H 0.0963 0.2754 0.2202 0
M  V30 27 H 1.1462 -0.7682 -0.7428 0
M  V30 28 H 1.6 6.0279 1.4295 0
M  V30 29 H 1.5481 5.488 2.9661 0
M  V30 30 H -1.3956 -1.6549 0.7254 0
M  V30 31 H -0.3533 -2.7183 -0.242 0
M  V30 32 H -0.782 -1.3073 -2.1406 0
M  V30 33 H -2.2213 -3.1838 -1.7403 0
M  V30 34 H -3.261 -2.1236 -0.7664 0
M  V30 35 H -2.6109 -1.7164 -3.7383 0
M  V30 36 H -3.588 -0.6301 -2.7557 0
M  V30 37 H -5.0778 -2.0498 -4.0228 0
M  V30 38 H -5.2245 -2.4738 -2.3159 0
M  V30 39 H -5.0951 -4.3822 -3.7253 0
M  V30 40 H -3.6607 -3.9195 -4.3426 0
M  V30 END ATOM
M  V30 BEGIN BOND
M  V30 1 1 1 2
M  V30 2 1 1 3
M  V30 3 1 2 4
M  V30 4 1 3 5
M  V30 5 1 4 6
M  V30 6 1 5 7
M  V30 7 1 6 8
M  V30 8 1 7 9
M  V30 9 1 9 10
M  V30 10 1 10 11
M  V30 11 1 11 12
M  V30 12 1 12 13
M  V30 13 1 13 14
M  V30 14 1 1 15
M  V30 15 1 2 16
M  V30 16 1 2 17
M  V30 17 1 3 18
M  V30 18 1 3 19
M  V30 19 1 4 20
M  V30 20 1 4 21
M  V30 21 1 5 22
M  V30 22 1 5 23
M  V30 23 1 6 24
M  V30 24 1 6 25
M  V30 25 1 7 26
M  V30 26 1 7 27
M  V30 27 1 8 28
M  V30 28 1 8 29
M  V30 29 1 9 30
M  V30 30 1 9 31
M  V30 31 1 10 32
M  V30 32 1 11 33
M  V30 33 1 11 34
M  V30 34 1 12 35
M  V30 35 1 12 36
M  V30 36 1 13 37
M  V30 37 1 13 38
M  V30 38 1 14 39
M  V30 39 1 14 40
M  V30 END BOND
M  V30 END CTAB
M  END
>  <level_0>
5900

>  <index>
5900

>  <NO.>
5901

>  <Name>
spermine

>  <SMILES>
NCCCNCCCCNCCCN

>  <logBB>


>  <Class>
-1

>  <MW>
202.22

>  <nHBAcc>
4

>  <nHBDon>
4

>  <SLogP>
-0.36

>  <TopoPSA>
76.1

>  <MMFF94 Energy>
-10.447

$$$$
NCCNCCNCCNCCN
Actelion Java MolfileCreator 2.0

  0  0  0  0  0  0              0 V3000
M  V30 BEGIN CTAB
M  V30 COUNTS 36 35 0 0 0
M  V30 BEGIN ATOM
M  V30 1 N 0.2283 0.9899 0.3806 0
M  V30 2 C 0.3841 1.4444 1.7666 0
M  V30 3 C -0.2983 2.0538 -0.4804 0
M  V30 4 C 0.9314 0.3326 2.6917 0
M  V30 5 C -0.7884 1.4664 -1.8211 0
M  V30 6 N 2.3965 0.2473 2.8053 0
M  V30 7 N -1.8057 0.4226 -1.598 0
M  V30 8 C 3.0656 -0.0505 1.5293 0
M  V30 9 C -2.2802 -0.1169 -2.8824 0
M  V30 10 C 2.8472 -1.4975 1.0421 0
M  V30 11 C -3.3476 -1.2103 -2.675 0
M  V30 12 N 3.1059 -2.476 2.1101 0
M  V30 13 N -4.363 -0.8254 -1.6857 0
M  V30 14 H -0.4234 0.2023 0.3311 0
M  V30 15 H 1.037 2.3244 1.8153 0
M  V30 16 H -0.5974 1.747 2.1527 0
M  V30 17 H -1.1413 2.5625 0.0043 0
M  V30 18 H 0.482 2.7983 -0.6723 0
M  V30 19 H 0.5007 -0.6404 2.426 0
M  V30 20 H 0.5636 0.5474 3.703 0
M  V30 21 H 0.0671 1.0403 -2.3592 0
M  V30 22 H -1.2025 2.2781 -2.4309 0
M  V30 23 H 2.5949 -0.5574 3.4088 0
M  V30 24 H -2.6139 0.8485 -1.139 0
M  V30 25 H 2.8102 0.6699 0.7471 0
M  V30 26 H 4.1408 0.0842 1.7043 0
M  V30 27 H -2.7176 0.6928 -3.4798 0
M  V30 28 H -1.4455 -0.5438 -3.4501 0
M  V30 29 H 3.5146 -1.7 0.1976 0
M  V30 30 H 1.8196 -1.6287 0.688 0
M  V30 31 H -2.8639 -2.1332 -2.3346 0
M  V30 32 H -3.836 -1.4264 -3.6309 0
M  V30 33 H 3.0167 -3.4141 1.7224 0
M  V30 34 H 4.075 -2.3827 2.413 0
M  V30 35 H -5.0318 -1.5892 -1.5923 0
M  V30 36 H -3.8942 -0.7644 -0.7804 0
M  V30 END ATOM
M  V30 BEGIN BOND
M  V30 1 1 1 2
M  V30 2 1 1 3
M  V30 3 1 2 4
M  V30 4 1 3 5
M  V30 5 1 4 6
M  V30 6 1 5 7
M  V30 7 1 6 8
M  V30 8 1 7 9
M  V30 9 1 8 10
M  V30 10 1 9 11
M  V30 11 1 10 12
M  V30 12 1 11 13
M  V30 13 1 1 14
M  V30 14 1 2 15
M  V30 15 1 2 16
M  V30 16 1 3 17
M  V30 17 1 3 18
M  V30 18 1 4 19
M  V30 19 1 4 20
M  V30 20 1 5 21
M  V30 21 1 5 22
M  V30 22 1 6 23
M  V30 23 1 7 24
M  V30 24 1 8 25
M  V30 25 1 8 26
M  V30 26 1 9 27
M  V30 27 1 9 28
M  V30 28 1 10 29
M  V30 29 1 10 30
M  V30 30 1 11 31
M  V30 31 1 11 32
M  V30 32 1 12 33
M  V30 33 1 12 34
M  V30 34 1 13 35
M  V30 35 1 13 36
M  V30 END BOND
M  V30 END CTAB
M  END
>  <level_0>
5901

>  <index>
5901

>  <NO.>
5902

>  <Name>
colestipol

>  <SMILES>
NCCNCCNCCNCCN

>  <logBB>


>  <Class>
-1

>  <MW>
189.2

>  <nHBAcc>
5

>  <nHBDon>
5

>  <SLogP>
-2.33

>  <TopoPSA>
88.13

>  <MMFF94 Energy>
73.874

$$$$
NCCc1ccn[nH]1
Actelion Java MolfileCreator 2.0

  0  0  0  0  0  0              0 V3000
M  V30 BEGIN CTAB
M  V30 COUNTS 17 17 0 0 0
M  V30 BEGIN ATOM
M  V30 1 N 0.3846 2.8489 0.6924 0
M  V30 2 N -0.4333 1.8317 0.3783 0
M  V30 3 C 1.5686 2.4638 0.2125 0
M  V30 4 C 0.1974 0.8042 -0.2701 0
M  V30 5 C 1.5116 1.1986 -0.3982 0
M  V30 6 C -0.5153 -0.4322 -0.6988 0
M  V30 7 C -0.3693 -1.5547 0.3362 0
M  V30 8 N -1.1009 -2.7525 -0.0712 0
M  V30 9 H -1.4112 1.9058 0.639 0
M  V30 10 H 2.422 3.1193 0.3286 0
M  V30 11 H 2.3171 0.6495 -0.865 0
M  V30 12 H -0.1134 -0.7629 -1.6649 0
M  V30 13 H -1.5776 -0.2082 -0.8608 0
M  V30 14 H -0.74 -1.2233 1.3134 0
M  V30 15 H 0.6885 -1.8121 0.4623 0
M  V30 16 H -0.9758 -3.4777 0.6348 0
M  V30 17 H -2.1004 -2.556 -0.1011 0
M  V30 END ATOM
M  V30 BEGIN BOND
M  V30 1 1 1 2
M  V30 2 2 1 3
M  V30 3 1 2 4
M  V30 4 1 3 5
M  V30 5 1 4 6
M  V30 6 1 6 7
M  V30 7 1 7 8
M  V30 8 2 4 5
M  V30 9 1 2 9
M  V30 10 1 3 10
M  V30 11 1 5 11
M  V30 12 1 6 12
M  V30 13 1 6 13
M  V30 14 1 7 14
M  V30 15 1 7 15
M  V30 16 1 8 16
M  V30 17 1 8 17
M  V30 END BOND
M  V30 END CTAB
M  END
>  <level_0>
5902

>  <index>
5902

>  <NO.>
5903

>  <Name>
betazole

>  <SMILES>
NCCc1ccn[nH]1

>  <logBB>


>  <Class>
-1

>  <MW>
111.08

>  <nHBAcc>
2

>  <nHBDon>
2

>  <SLogP>
-0.09

>  <TopoPSA>
54.7

>  <MMFF94 Energy>
16.703

$$$$
NCCc1cnc[nH]1
Actelion Java MolfileCreator 2.0

  0  0  0  0  0  0              0 V3000
M  V30 BEGIN CTAB
M  V30 COUNTS 17 17 0 0 0
M  V30 BEGIN ATOM
M  V30 1 N 1.0754 2.2288 1.7673 0
M  V30 2 C 0.3936 2.8121 0.8093 0
M  V30 3 C 0.7703 0.8964 1.6706 0
M  V30 4 N -0.3384 1.9085 0.0938 0
M  V30 5 C -0.1047 0.6667 0.631 0
M  V30 6 C -0.7287 -0.5787 0.1074 0
M  V30 7 C 0.1856 -1.2866 -0.8997 0
M  V30 8 N -0.4501 -2.487 -1.4401 0
M  V30 9 H 0.389 3.871 0.5879 0
M  V30 10 H 1.1989 0.1735 2.3531 0
M  V30 11 H -0.942 2.1225 -0.6885 0
M  V30 12 H -1.6904 -0.3396 -0.3645 0
M  V30 13 H -0.9493 -1.2507 0.9465 0
M  V30 14 H 1.134 -1.5631 -0.4242 0
M  V30 15 H 0.4243 -0.6115 -1.7296 0
M  V30 16 H 0.1964 -2.9461 -2.0817 0
M  V30 17 H -0.6151 -3.1539 -0.6861 0
M  V30 END ATOM
M  V30 BEGIN BOND
M  V30 1 2 1 2
M  V30 2 1 1 3
M  V30 3 1 2 4
M  V30 4 2 3 5
M  V30 5 1 5 6
M  V30 6 1 6 7
M  V30 7 1 7 8
M  V30 8 1 4 5
M  V30 9 1 2 9
M  V30 10 1 3 10
M  V30 11 1 4 11
M  V30 12 1 6 12
M  V30 13 1 6 13
M  V30 14 1 7 14
M  V30 15 1 7 15
M  V30 16 1 8 16
M  V30 17 1 8 17
M  V30 END BOND
M  V30 END CTAB
M  END
>  <level_0>
5903

>  <index>
5903

>  <NO.>
5904

>  <Name>
histamine phosphate

>  <SMILES>
NCCc1cnc[nH]1

>  <logBB>


>  <Class>
-1

>  <MW>
111.08

>  <nHBAcc>
2

>  <nHBDon>
2

>  <SLogP>
-0.09

>  <TopoPSA>
54.7

>  <MMFF94 Energy>
9.6634

$$$$
NCc1ccc(S(N)(=O)=O)cc1
Actelion Java MolfileCreator 2.0

  0  0  0  0  0  0              0 V3000
M  V30 BEGIN CTAB
M  V30 COUNTS 22 22 0 0 0
M  V30 BEGIN ATOM
M  V30 1 S 0.8046 -0.4022 -2.9797 0
M  V30 2 O 2.2102 -0.7113 -3.101 0
M  V30 3 O 0.1459 0.5527 -3.8406 0
M  V30 4 N -0.0084 -1.8545 -3.2002 0
M  V30 5 C 0.4315 -0.0244 -1.2938 0
M  V30 6 C 1.2609 -0.5071 -0.2795 0
M  V30 7 C -0.6634 0.7893 -0.9923 0
M  V30 8 C 0.978 -0.1864 1.0491 0
M  V30 9 C -0.9409 1.1064 0.3394 0
M  V30 10 C -0.123 0.6233 1.3723 0
M  V30 11 C -0.4173 0.9644 2.8116 0
M  V30 12 N -0.8238 -0.2164 3.5626 0
M  V30 13 H 0.6604 -2.5973 -3.4038 0
M  V30 14 H -0.7312 -1.7416 -3.911 0
M  V30 15 H 2.1211 -1.1306 -0.5114 0
M  V30 16 H -1.3014 1.1783 -1.7826 0
M  V30 17 H 1.6153 -0.5734 1.8428 0
M  V30 18 H -1.7983 1.737 0.5655 0
M  V30 19 H 0.4768 1.4044 3.2676 0
M  V30 20 H -1.2084 1.7209 2.8712 0
M  V30 21 H -1.6471 -0.6213 3.1193 0
M  V30 22 H -1.1093 0.0648 4.4982 0
M  V30 END ATOM
M  V30 BEGIN BOND
M  V30 1 2 1 2
M  V30 2 2 1 3
M  V30 3 1 1 4
M  V30 4 1 1 5
M  V30 5 2 5 6
M  V30 6 1 5 7
M  V30 7 1 6 8
M  V30 8 2 7 9
M  V30 9 2 8 10
M  V30 10 1 10 11
M  V30 11 1 11 12
M  V30 12 1 9 10
M  V30 13 1 4 13
M  V30 14 1 4 14
M  V30 15 1 6 15
M  V30 16 1 7 16
M  V30 17 1 8 17
M  V30 18 1 9 18
M  V30 19 1 11 19
M  V30 20 1 11 20
M  V30 21 1 12 21
M  V30 22 1 12 22
M  V30 END BOND
M  V30 END CTAB
M  END
>  <level_0>
5904

>  <index>
5904

>  <NO.>
5905

>  <Name>
mafenide

>  <SMILES>
NCc1ccc(S(N)(=O)=O)cc1

>  <logBB>


>  <Class>
-1

>  <MW>
186.05

>  <nHBAcc>
3

>  <nHBDon>
2

>  <SLogP>
-0.21

>  <TopoPSA>
86.18

>  <MMFF94 Energy>
-63.388

$$$$
Nc1ccc(S(N)(=O)=O)cc1
Actelion Java MolfileCreator 2.0

  0  0  0  0  0  0              0 V3000
M  V30 BEGIN CTAB
M  V30 COUNTS 19 19 0 0 0
M  V30 BEGIN ATOM
M  V30 1 S -1.6943 -0.9679 -1.6135 0
M  V30 2 O -1.0242 -1.6142 -2.7179 0
M  V30 3 O -2.8088 -0.0688 -1.8037 0
M  V30 4 N -2.2639 -2.2057 -0.6327 0
M  V30 5 C -0.4931 -0.1973 -0.571 0
M  V30 6 C -0.8721 0.8582 0.2597 0
M  V30 7 C 0.836 -0.6209 -0.6152 0
M  V30 8 C 0.0878 1.4796 1.0635 0
M  V30 9 C 1.7858 0.0093 0.1937 0
M  V30 10 C 1.4243 1.0699 1.0302 0
M  V30 11 N 2.3625 1.6686 1.8498 0
M  V30 12 H -2.0497 -3.1087 -1.0561 0
M  V30 13 H -3.2554 -2.0646 -0.4385 0
M  V30 14 H -1.9036 1.201 0.291 0
M  V30 15 H 1.1405 -1.4351 -1.2684 0
M  V30 16 H -0.2172 2.2939 1.716 0
M  V30 17 H 2.8169 -0.3334 0.1617 0
M  V30 18 H 3.3385 1.4155 1.7818 0
M  V30 19 H 2.1159 2.4742 2.4081 0
M  V30 END ATOM
M  V30 BEGIN BOND
M  V30 1 2 1 2
M  V30 2 2 1 3
M  V30 3 1 1 4
M  V30 4 1 1 5
M  V30 5 2 5 6
M  V30 6 1 5 7
M  V30 7 1 6 8
M  V30 8 2 7 9
M  V30 9 2 8 10
M  V30 10 1 10 11
M  V30 11 1 9 10
M  V30 12 1 4 12
M  V30 13 1 4 13
M  V30 14 1 6 14
M  V30 15 1 7 15
M  V30 16 1 8 16
M  V30 17 1 9 17
M  V30 18 1 11 18
M  V30 19 1 11 19
M  V30 END BOND
M  V30 END CTAB
M  END
>  <level_0>
5907

>  <index>
5907

>  <NO.>
5908

>  <Name>
sulfanilamide

>  <SMILES>
Nc1ccc(S(N)(=O)=O)cc1

>  <logBB>


>  <Class>
-1

>  <MW>
172.03

>  <nHBAcc>
3

>  <nHBDon>
2

>  <SLogP>
-0.08

>  <TopoPSA>
86.18

>  <MMFF94 Energy>
-67.486

$$$$
Nc1nc(Cl)nc2c1ncn2C1OC(CO)C(O)C1F
Actelion Java MolfileCreator 2.0

  0  0  0  0  0  0              0 V3000
M  V30 BEGIN CTAB
M  V30 COUNTS 31 33 0 0 0
M  V30 BEGIN ATOM
M  V30 1 Cl 3.4232 -2.0365 0.8142 0
M  V30 2 C 2.3128 -1.7282 -0.4519 0
M  V30 3 N 2.557 -2.3718 -1.6086 0
M  V30 4 N 1.3217 -0.8668 -0.1424 0
M  V30 5 C 1.7071 -2.1578 -2.6359 0
M  V30 6 C 0.5027 -0.6973 -1.1927 0
M  V30 7 N 1.9435 -2.805 -3.8267 0
M  V30 8 C 0.621 -1.284 -2.4437 0
M  V30 9 N -0.6159 0.0862 -1.2734 0
M  V30 10 N -0.3939 -0.866 -3.2774 0
M  V30 11 C -1.121 -0.0517 -2.5413 0
M  V30 12 C -1.1937 0.91 -0.2343 0
M  V30 13 O -1.6624 0.062 0.8359 0
M  V30 14 C -0.2565 1.938 0.3791 0
M  V30 15 C -1.3748 0.7381 2.0866 0
M  V30 16 F -0.2495 3.096 -0.3289 0
M  V30 17 C -0.9076 2.1517 1.7284 0
M  V30 18 C -0.3244 -0.0688 2.8554 0
M  V30 19 O -2.0516 3.0087 1.5674 0
M  V30 20 O -0.0074 0.5653 4.0867 0
M  V30 21 H 1.3114 -2.6588 -4.6016 0
M  V30 22 H 2.7373 -3.422 -3.8926 0
M  V30 23 H -2.0172 0.4588 -2.8736 0
M  V30 24 H -2.0712 1.4088 -0.6651 0
M  V30 25 H 0.773 1.5881 0.4908 0
M  V30 26 H -2.3031 0.7769 2.6684 0
M  V30 27 H -0.2496 2.6159 2.4675 0
M  V30 28 H 0.5971 -0.1799 2.279 0
M  V30 29 H -0.7044 -1.0759 3.0592 0
M  V30 30 H -1.7201 3.8513 1.2011 0
M  V30 31 H 0.5754 -0.0421 4.5769 0
M  V30 END ATOM
M  V30 BEGIN BOND
M  V30 1 1 1 2
M  V30 2 2 2 3
M  V30 3 1 2 4
M  V30 4 1 3 5
M  V30 5 2 4 6
M  V30 6 1 5 7
M  V30 7 2 5 8
M  V30 8 1 6 9
M  V30 9 1 8 10
M  V30 10 1 9 11
M  V30 11 1 9 12
M  V30 12 1 12 13
M  V30 13 1 12 14
M  V30 14 1 13 15
M  V30 15 1 14 16
M  V30 16 1 14 17
M  V30 17 1 15 18
M  V30 18 1 17 19
M  V30 19 1 18 20
M  V30 20 1 6 8
M  V30 21 2 10 11
M  V30 22 1 15 17
M  V30 23 1 7 21
M  V30 24 1 7 22
M  V30 25 1 11 23
M  V30 26 1 12 24
M  V30 27 1 14 25
M  V30 28 1 15 26
M  V30 29 1 17 27
M  V30 30 1 18 28
M  V30 31 1 18 29
M  V30 32 1 19 30
M  V30 33 1 20 31
M  V30 END BOND
M  V30 END CTAB
M  END
>  <level_0>
5913

>  <index>
5913

>  <NO.>
5914

>  <Name>
clofarabine

>  <SMILES>
Nc1nc(Cl)nc2c1ncn2C1OC(CO)C(O)C1F

>  <logBB>


>  <Class>
-1

>  <MW>
303.05

>  <nHBAcc>
7

>  <nHBDon>
3

>  <SLogP>
-0.35

>  <TopoPSA>
119.31

>  <MMFF94 Energy>
54.667

$$$$
Nc1nc(F)nc2c1ncn2C1OC(COP(=O)(O)O)C(O)C1O
Actelion Java MolfileCreator 2.0

  0  0  0  0  0  0              0 V3000
M  V30 BEGIN CTAB
M  V30 COUNTS 37 39 0 0 0
M  V30 BEGIN ATOM
M  V30 1 P -1.96 3.6774 2.1235 0
M  V30 2 O -3.1783 3.99 1.3331 0
M  V30 3 O -0.5611 3.7173 1.3475 0
M  V30 4 O -1.7125 4.6388 3.3693 0
M  V30 5 O -1.9636 2.2373 2.8106 0
M  V30 6 C -0.4124 2.8377 0.2479 0
M  V30 7 C 0.9576 2.1599 0.2993 0
M  V30 8 O 1.062 1.2541 -0.8238 0
M  V30 9 C 1.1796 1.3264 1.5633 0
M  V30 10 C 1.1468 -0.0968 -0.3063 0
M  V30 11 O 2.5876 1.1897 1.8379 0
M  V30 12 C 0.6639 -0.0392 1.1453 0
M  V30 13 N 0.3507 -0.9749 -1.1397 0
M  V30 14 O 1.19 -1.0681 1.9756 0
M  V30 15 C 0.6336 -2.2868 -1.4069 0
M  V30 16 C -0.819 -0.6679 -1.783 0
M  V30 17 N 1.6903 -3.0027 -0.9954 0
M  V30 18 C -0.4151 -2.724 -2.1982 0
M  V30 19 N -1.318 -1.7052 -2.423 0
M  V30 20 C 1.6243 -4.2725 -1.4475 0
M  V30 21 C -0.373 -4.0654 -2.6122 0
M  V30 22 F 2.6386 -5.077 -1.0912 0
M  V30 23 N 0.6676 -4.8314 -2.2209 0
M  V30 24 N -1.3462 -4.6357 -3.4011 0
M  V30 25 H -1.8242 5.5756 3.1238 0
M  V30 26 H -2.7855 2.0942 3.3163 0
M  V30 27 H -0.5061 3.4181 -0.6765 0
M  V30 28 H -1.2138 2.0896 0.2224 0
M  V30 29 H 1.7443 2.9162 0.1965 0
M  V30 30 H 0.7083 1.7099 2.4713 0
M  V30 31 H 2.1922 -0.4191 -0.3822 0
M  V30 32 H 2.9037 2.0562 2.1558 0
M  V30 33 H -0.4303 -0.0703 1.203 0
M  V30 34 H 2.1151 -0.8083 2.1694 0
M  V30 35 H -1.2613 0.3198 -1.7543 0
M  V30 36 H -2.1293 -4.0728 -3.7018 0
M  V30 37 H -1.2492 -5.6048 -3.6587 0
M  V30 END ATOM
M  V30 BEGIN BOND
M  V30 1 2 1 2
M  V30 2 1 1 3
M  V30 3 1 1 4
M  V30 4 1 1 5
M  V30 5 1 3 6
M  V30 6 1 6 7
M  V30 7 1 7 8
M  V30 8 1 7 9
M  V30 9 1 8 10
M  V30 10 1 9 11
M  V30 11 1 9 12
M  V30 12 1 10 13
M  V30 13 1 12 14
M  V30 14 1 13 15
M  V30 15 1 13 16
M  V30 16 2 15 17
M  V30 17 1 15 18
M  V30 18 2 16 19
M  V30 19 1 17 20
M  V30 20 2 18 21
M  V30 21 1 20 22
M  V30 22 2 20 23
M  V30 23 1 21 24
M  V30 24 1 10 12
M  V30 25 1 18 19
M  V30 26 1 21 23
M  V30 27 1 4 25
M  V30 28 1 5 26
M  V30 29 1 6 27
M  V30 30 1 6 28
M  V30 31 1 7 29
M  V30 32 1 9 30
M  V30 33 1 10 31
M  V30 34 1 11 32
M  V30 35 1 12 33
M  V30 36 1 14 34
M  V30 37 1 16 35
M  V30 38 1 24 36
M  V30 39 1 24 37
M  V30 END BOND
M  V30 END CTAB
M  END
>  <level_0>
5914

>  <index>
5914

>  <NO.>
5915

>  <Name>
fludara

>  <SMILES>
Nc1nc(F)nc2c1ncn2C1OC(COP(=O)(O)O)C(O)C1O

>  <logBB>


>  <Class>
-1

>  <MW>
365.05

>  <nHBAcc>
9

>  <nHBDon>
5

>  <SLogP>
-1.72

>  <TopoPSA>
186.07

>  <MMFF94 Energy>
-127.45

$$$$
Nc1nc2[nH]cc(CCc3ccc(C(=O)NC(CCC(=O)O)C(=O)O)cc3)c2c(=O)[nH]1
Actelion Java MolfileCreator 2.0

  0  0  0  0  0  0              0 V3000
M  V30 BEGIN CTAB
M  V30 COUNTS 52 54 0 0 0
M  V30 BEGIN ATOM
M  V30 1 O 0.3166 0.475 4.4403 0
M  V30 2 C -0.4487 0.2608 5.3751 0
M  V30 3 N -0.0246 0.2274 6.691 0
M  V30 4 C -1.863 0.011 5.2377 0
M  V30 5 C -0.8491 -0.0239 7.7677 0
M  V30 6 C -2.5798 -0.2271 6.3866 0
M  V30 7 C -2.7583 -0.0561 4.1343 0
M  V30 8 N -2.1287 -0.2566 7.6609 0
M  V30 9 N -0.2651 -0.0216 8.9859 0
M  V30 10 N -3.8806 -0.4402 6.0374 0
M  V30 11 C -4.0046 -0.3404 4.6716 0
M  V30 12 C -2.4215 0.1444 2.6913 0
M  V30 13 C -1.7926 -1.1029 2.0644 0
M  V30 14 C -1.364 -0.8574 0.6382 0
M  V30 15 C -0.1267 -0.2553 0.3707 0
M  V30 16 C -2.2062 -1.1926 -0.4285 0
M  V30 17 C 0.2726 -0.0068 -0.945 0
M  V30 18 C -1.8092 -0.9449 -1.7446 0
M  V30 19 C -0.5634 -0.364 -2.0095 0
M  V30 20 C -0.1852 -0.1187 -3.4288 0
M  V30 21 O -1.0491 0.0188 -4.2873 0
M  V30 22 N 1.163 -0.0975 -3.7105 0
M  V30 23 C 1.6542 0.0524 -5.0804 0 CFG=2
M  V30 24 C 1.8546 -1.3509 -5.6524 0
M  V30 25 C 2.9654 0.8388 -5.0848 0
M  V30 26 O 2.2723 -2.3282 -5.0484 0
M  V30 27 O 1.5793 -1.4314 -6.9699 0
M  V30 28 C 3.4001 1.2507 -6.4917 0
M  V30 29 C 4.6358 2.1078 -6.4532 0
M  V30 30 O 5.306 2.3961 -5.4772 0
M  V30 31 O 4.9749 2.5553 -7.6773 0
M  V30 32 H 0.9548 0.3979 6.8321 0
M  V30 33 H -0.8582 -0.2038 9.7859 0
M  V30 34 H 0.7142 0.152 9.1428 0
M  V30 35 H -4.622 -0.6369 6.6948 0
M  V30 36 H -4.9691 -0.4767 4.2002 0
M  V30 37 H -1.7433 1.0025 2.6001 0
M  V30 38 H -3.3295 0.4185 2.1382 0
M  V30 39 H -0.9215 -1.4339 2.6447 0
M  V30 40 H -2.5013 -1.9409 2.0992 0
M  V30 41 H 0.5275 0.033 1.193 0
M  V30 42 H -3.1776 -1.6459 -0.2432 0
M  V30 43 H 1.223 0.4899 -1.115 0
M  V30 44 H -2.4741 -1.2084 -2.5648 0
M  V30 45 H 1.8156 -0.4389 -3.016 0
M  V30 46 H 0.8879 0.5689 -5.6696 0
M  V30 47 H 2.847 1.7407 -4.4689 0
M  V30 48 H 3.7629 0.2508 -4.611 0
M  V30 49 H 1.7116 -2.3788 -7.184 0
M  V30 50 H 3.6244 0.367 -7.0974 0
M  V30 51 H 2.6008 1.8248 -6.973 0
M  V30 52 H 5.7819 3.0904 -7.5236 0
M  V30 END ATOM
M  V30 BEGIN BOND
M  V30 1 2 1 2
M  V30 2 1 2 3
M  V30 3 1 2 4
M  V30 4 1 3 5
M  V30 5 2 4 6
M  V30 6 1 4 7
M  V30 7 2 5 8
M  V30 8 1 5 9
M  V30 9 1 6 10
M  V30 10 2 7 11
M  V30 11 1 7 12
M  V30 12 1 12 13
M  V30 13 1 13 14
M  V30 14 2 14 15
M  V30 15 1 14 16
M  V30 16 1 15 17
M  V30 17 2 16 18
M  V30 18 2 17 19
M  V30 19 1 19 20
M  V30 20 2 20 21
M  V30 21 1 20 22
M  V30 22 1 22 23
M  V30 23 1 23 24
M  V30 24 1 23 25
M  V30 25 2 24 26
M  V30 26 1 24 27
M  V30 27 1 25 28
M  V30 28 1 28 29
M  V30 29 2 29 30
M  V30 30 1 29 31
M  V30 31 1 6 8
M  V30 32 1 10 11
M  V30 33 1 18 19
M  V30 34 1 3 32
M  V30 35 1 9 33
M  V30 36 1 9 34
M  V30 37 1 10 35
M  V30 38 1 11 36
M  V30 39 1 12 37
M  V30 40 1 12 38
M  V30 41 1 13 39
M  V30 42 1 13 40
M  V30 43 1 15 41
M  V30 44 1 16 42
M  V30 45 1 17 43
M  V30 46 1 18 44
M  V30 47 1 22 45
M  V30 48 1 23 46
M  V30 49 1 25 47
M  V30 50 1 25 48
M  V30 51 1 27 49
M  V30 52 1 28 50
M  V30 53 1 28 51
M  V30 54 1 31 52
M  V30 END BOND
M  V30 BEGIN COLLECTION
M  V30 MDLV30/STERAC1 ATOMS=(1 23)
M  V30 END COLLECTION
M  V30 END CTAB
M  END
>  <level_0>
5915

>  <index>
5915

>  <NO.>
5916

>  <Name>
pemetrexed

>  <SMILES>
Nc1nc2[nH]cc(CCc3ccc(C(=O)NC(CCC(=O)O)C(=O)O)cc3)c2c(=O)[nH]1

>  <logBB>


>  <Class>
-1

>  <MW>
427.15

>  <nHBAcc>
6

>  <nHBDon>
6

>  <SLogP>
0.67

>  <TopoPSA>
191.26

>  <MMFF94 Energy>
-105.7

$$$$
Nc1nc2c(c(=O)[nH]1)NC(CNc1ccc(C(=O)NC(CCC(=O)O)C(=O)O)cc1)CN2
Actelion Java MolfileCreator 2.0

  0  0  0  0  0  0              0 V3000
M  V30 BEGIN CTAB
M  V30 COUNTS 55 57 0 0 0
M  V30 BEGIN ATOM
M  V30 1 O 1.58 1.4219 7.6019 0
M  V30 2 C 2.143 0.9089 6.6371 0
M  V30 3 N 3.0588 -0.0892 6.7714 0
M  V30 4 C 1.8562 1.3312 5.2384 0
M  V30 5 C 3.6603 -0.6734 5.7034 0
M  V30 6 N 0.9208 2.339 5.008 0
M  V30 7 C 2.5219 0.6822 4.2489 0
M  V30 8 N 3.4217 -0.3264 4.4805 0
M  V30 9 N 4.5422 -1.6597 5.9693 0
M  V30 10 C 0.4309 2.6159 3.6475 0
M  V30 11 N 2.2739 1.0785 2.9402 0
M  V30 12 C 1.5617 2.3161 2.6173 0
M  V30 13 C -0.8462 1.7855 3.3755 0
M  V30 14 N -1.5978 2.2767 2.2242 0
M  V30 15 C -1.6134 1.7183 0.9629 0
M  V30 16 C -0.8916 0.575 0.6033 0
M  V30 17 C -2.3772 2.3382 -0.036 0
M  V30 18 C -0.9291 0.0625 -0.7019 0
M  V30 19 C -2.4236 1.8366 -1.3419 0
M  V30 20 C -1.6888 0.7001 -1.6853 0
M  V30 21 C -1.7684 0.2034 -3.087 0
M  V30 22 O -2.7352 0.4784 -3.7895 0
M  V30 23 N -0.7041 -0.538 -3.5454 0
M  V30 24 C -0.6781 -1.0894 -4.9015 0
M  V30 25 C 0.7898 -1.3087 -5.2597 0
M  V30 26 C -1.4637 -2.4021 -4.9661 0
M  V30 27 O 1.6984 -1.517 -4.4679 0
M  V30 28 O 1.0315 -1.2742 -6.5842 0
M  V30 29 C -1.7994 -2.8136 -6.3996 0
M  V30 30 C -2.641 -4.0601 -6.4268 0
M  V30 31 O -2.8196 -4.8519 -5.5177 0
M  V30 32 O -3.1948 -4.2683 -7.637 0
M  V30 33 H 3.2635 -0.3841 7.7098 0
M  V30 34 H 0.4417 2.6995 5.8291 0
M  V30 35 H 4.9948 -2.1022 5.1793 0
M  V30 36 H 4.7724 -1.9769 6.897 0
M  V30 37 H 0.1772 3.6811 3.5835 0
M  V30 38 H 2.8763 0.6437 2.2529 0
M  V30 39 H 1.1881 2.2828 1.5914 0
M  V30 40 H 2.2918 3.1344 2.6583 0
M  V30 41 H -1.5088 1.8939 4.2447 0
M  V30 42 H -0.6326 0.7129 3.3221 0
M  V30 43 H -2.2314 3.0494 2.3999 0
M  V30 44 H -0.2835 0.0448 1.3315 0
M  V30 45 H -2.9566 3.2295 0.1944 0
M  V30 46 H -0.3771 -0.8483 -0.9121 0
M  V30 47 H -3.0343 2.3408 -2.0883 0
M  V30 48 H 0.124 -0.6737 -2.9758 0
M  V30 49 H -1.0989 -0.3322 -5.5732 0
M  V30 50 H -0.8992 -3.2045 -4.4725 0
M  V30 51 H -2.4014 -2.304 -4.4032 0
M  V30 52 H 1.9989 -1.417 -6.6599 0
M  V30 53 H -2.3597 -2.0085 -6.8883 0
M  V30 54 H -0.8896 -3.0155 -6.9726 0
M  V30 55 H -3.7067 -5.0969 -7.5253 0
M  V30 END ATOM
M  V30 BEGIN BOND
M  V30 1 2 1 2
M  V30 2 1 2 3
M  V30 3 1 2 4
M  V30 4 1 3 5
M  V30 5 1 4 6
M  V30 6 2 4 7
M  V30 7 2 5 8
M  V30 8 1 5 9
M  V30 9 1 6 10
M  V30 10 1 7 11
M  V30 11 1 10 12
M  V30 12 1 10 13
M  V30 13 1 13 14
M  V30 14 1 14 15
M  V30 15 2 15 16
M  V30 16 1 15 17
M  V30 17 1 16 18
M  V30 18 2 17 19
M  V30 19 2 18 20
M  V30 20 1 20 21
M  V30 21 2 21 22
M  V30 22 1 21 23
M  V30 23 1 23 24
M  V30 24 1 24 25
M  V30 25 1 24 26
M  V30 26 2 25 27
M  V30 27 1 25 28
M  V30 28 1 26 29
M  V30 29 1 29 30
M  V30 30 2 30 31
M  V30 31 1 30 32
M  V30 32 1 7 8
M  V30 33 1 11 12
M  V30 34 1 19 20
M  V30 35 1 3 33
M  V30 36 1 6 34
M  V30 37 1 9 35
M  V30 38 1 9 36
M  V30 39 1 10 37
M  V30 40 1 11 38
M  V30 41 1 12 39
M  V30 42 1 12 40
M  V30 43 1 13 41
M  V30 44 1 13 42
M  V30 45 1 14 43
M  V30 46 1 16 44
M  V30 47 1 17 45
M  V30 48 1 18 46
M  V30 49 1 19 47
M  V30 50 1 23 48
M  V30 51 1 24 49
M  V30 52 1 26 50
M  V30 53 1 26 51
M  V30 54 1 28 52
M  V30 55 1 29 53
M  V30 56 1 29 54
M  V30 57 1 32 55
M  V30 END BOND
M  V30 END CTAB
M  END
>  <level_0>
5916

>  <index>
5916

>  <NO.>
5917

>  <Name>
tetrahydrofolic acid

>  <SMILES>
Nc1nc2c(c(=O)[nH]1)NC(CNc1ccc(C(=O)NC(CCC(=O)O)C(=O)O)cc1)CN2

>  <logBB>


>  <Class>
-1

>  <MW>
445.17

>  <nHBAcc>
9

>  <nHBDon>
8

>  <SLogP>
-0.28

>  <TopoPSA>
211.56

>  <MMFF94 Energy>
-24.931

$$$$
Nc1ncn(C2CC(O)C(CO)O2)c(=O)n1
Actelion Java MolfileCreator 2.0

  0  0  0  0  0  0              0 V3000
M  V30 BEGIN CTAB
M  V30 COUNTS 28 29 0 0 0
M  V30 BEGIN ATOM
M  V30 1 O 1.1833 -2.9999 1.1044 0
M  V30 2 C 0.3626 -2.2112 1.5698 0
M  V30 3 N -0.4544 -2.5792 2.5969 0
M  V30 4 N 0.2248 -0.9457 1.0531 0
M  V30 5 C -1.3901 -1.7821 2.9786 0
M  V30 6 C -0.8104 -0.197 1.4944 0
M  V30 7 C 1.0767 -0.5492 -0.0502 0
M  V30 8 N -1.6197 -0.5703 2.4181 0
M  V30 9 N -2.2032 -2.1463 3.9885 0
M  V30 10 O 1.2989 0.8777 -0.0038 0
M  V30 11 C 0.4878 -0.8822 -1.4204 0
M  V30 12 C 1.0323 1.3938 -1.3151 0
M  V30 13 C -0.0069 0.4557 -1.9144 0
M  V30 14 C 0.5544 2.8408 -1.2588 0
M  V30 15 O -0.057 0.5111 -3.3271 0
M  V30 16 O 0.2784 3.327 -2.5692 0
M  V30 17 H -0.9376 0.7841 1.0149 0
M  V30 18 H 2.0549 -1.032 0.0578 0
M  V30 19 H -2.9367 -1.5244 4.2893 0
M  V30 20 H -2.0689 -3.0409 4.4338 0
M  V30 21 H -0.2971 -1.6451 -1.3979 0
M  V30 22 H 1.2743 -1.2603 -2.086 0
M  V30 23 H 1.958 1.351 -1.9045 0
M  V30 24 H -1.0083 0.6526 -1.5135 0
M  V30 25 H -0.3597 2.9225 -0.6607 0
M  V30 26 H 1.301 3.4841 -0.7802 0
M  V30 27 H -0.2792 1.4365 -3.5594 0
M  V30 28 H 1.1174 3.6673 -2.9316 0
M  V30 END ATOM
M  V30 BEGIN BOND
M  V30 1 2 1 2
M  V30 2 1 2 3
M  V30 3 1 2 4
M  V30 4 2 3 5
M  V30 5 1 4 6
M  V30 6 1 4 7
M  V30 7 1 5 8
M  V30 8 1 5 9
M  V30 9 1 7 10
M  V30 10 1 7 11
M  V30 11 1 10 12
M  V30 12 1 11 13
M  V30 13 1 12 14
M  V30 14 1 13 15
M  V30 15 1 14 16
M  V30 16 2 6 8
M  V30 17 1 12 13
M  V30 18 1 6 17
M  V30 19 1 7 18
M  V30 20 1 9 19
M  V30 21 1 9 20
M  V30 22 1 11 21
M  V30 23 1 11 22
M  V30 24 1 12 23
M  V30 25 1 13 24
M  V30 26 1 14 25
M  V30 27 1 14 26
M  V30 28 1 15 27
M  V30 29 1 16 28
M  V30 END BOND
M  V30 END CTAB
M  END
>  <level_0>
5917

>  <index>
5917

>  <NO.>
5918

>  <Name>
decitabine

>  <SMILES>
Nc1ncn(C2CC(O)C(CO)O2)c(=O)n1

>  <logBB>


>  <Class>
-1

>  <MW>
228.09

>  <nHBAcc>
7

>  <nHBDon>
3

>  <SLogP>
-2.14

>  <TopoPSA>
123.49

>  <MMFF94 Energy>
-177.2

$$$$
Nc1ncnc2c1ncn2C1OC(COP(=O)(O)O)C(O)C1O
Actelion Java MolfileCreator 2.0

  0  0  0  0  0  0              0 V3000
M  V30 BEGIN CTAB
M  V30 COUNTS 37 39 0 0 0
M  V30 BEGIN ATOM
M  V30 1 P -1.6244 2.9255 1.787 0
M  V30 2 O -1.9326 3.8065 2.9493 0
M  V30 3 O -0.6751 3.5734 0.6754 0
M  V30 4 O -0.9769 1.5269 2.1814 0
M  V30 5 O -2.9652 2.4838 1.0389 0
M  V30 6 C -0.6844 3.1248 -0.6695 0
M  V30 7 C 0.0328 1.7872 -0.8304 0
M  V30 8 O -0.814 0.7195 -0.3383 0
M  V30 9 C 0.3259 1.4447 -2.2854 0
M  V30 10 C -0.6335 -0.4207 -1.2191 0
M  V30 11 O 1.5145 2.0286 -2.7976 0
M  V30 12 C 0.4695 -0.0648 -2.2113 0
M  V30 13 N -0.3379 -1.5982 -0.4303 0
M  V30 14 O 0.2762 -0.6616 -3.491 0
M  V30 15 C 0.5024 -1.6793 0.6448 0
M  V30 16 C -0.8434 -2.8514 -0.6567 0
M  V30 17 N 1.2243 -0.693 1.2011 0
M  V30 18 C 0.4453 -3.0052 1.0425 0
M  V30 19 N -0.3977 -3.7269 0.2196 0
M  V30 20 C 1.9153 -1.1484 2.2668 0
M  V30 21 C 1.2223 -3.3625 2.1573 0
M  V30 22 N 1.9593 -2.4037 2.7636 0
M  V30 23 N 1.2683 -4.6409 2.6633 0
M  V30 24 H -0.8653 0.9315 1.4107 0
M  V30 25 H -3.706 2.5461 1.6725 0
M  V30 26 H -1.7167 3.0719 -1.03 0
M  V30 27 H -0.1706 3.8948 -1.2538 0
M  V30 28 H 0.9512 1.7887 -0.2304 0
M  V30 29 H -0.5039 1.7143 -2.9505 0
M  V30 30 H -1.5911 -0.5948 -1.7245 0
M  V30 31 H 1.3969 2.9946 -2.8411 0
M  V30 32 H 1.4666 -0.3514 -1.8551 0
M  V30 33 H 0.9865 -0.3079 -4.062 0
M  V30 34 H -1.5264 -3.0699 -1.4687 0
M  V30 35 H 2.5153 -0.4119 2.7944 0
M  V30 36 H 1.8407 -4.8124 3.4739 0
M  V30 37 H 0.7154 -5.3638 2.2265 0
M  V30 END ATOM
M  V30 BEGIN BOND
M  V30 1 2 1 2
M  V30 2 1 1 3
M  V30 3 1 1 4
M  V30 4 1 1 5
M  V30 5 1 3 6
M  V30 6 1 6 7
M  V30 7 1 7 8
M  V30 8 1 7 9
M  V30 9 1 8 10
M  V30 10 1 9 11
M  V30 11 1 9 12
M  V30 12 1 10 13
M  V30 13 1 12 14
M  V30 14 1 13 15
M  V30 15 1 13 16
M  V30 16 2 15 17
M  V30 17 1 15 18
M  V30 18 2 16 19
M  V30 19 1 17 20
M  V30 20 2 18 21
M  V30 21 2 20 22
M  V30 22 1 21 23
M  V30 23 1 10 12
M  V30 24 1 18 19
M  V30 25 1 21 22
M  V30 26 1 4 24
M  V30 27 1 5 25
M  V30 28 1 6 26
M  V30 29 1 6 27
M  V30 30 1 7 28
M  V30 31 1 9 29
M  V30 32 1 10 30
M  V30 33 1 11 31
M  V30 34 1 12 32
M  V30 35 1 14 33
M  V30 36 1 16 34
M  V30 37 1 20 35
M  V30 38 1 23 36
M  V30 39 1 23 37
M  V30 END BOND
M  V30 END CTAB
M  END
>  <level_0>
5918

>  <index>
5918

>  <NO.>
5919

>  <Name>
9-(5-o-phosphonopentofuranosyl)-9h-purin-6-amine

>  <SMILES>
Nc1ncnc2c1ncn2C1OC(COP(=O)(O)O)C(O)C1O

>  <logBB>


>  <Class>
-1

>  <MW>
347.06

>  <nHBAcc>
9

>  <nHBDon>
5

>  <SLogP>
-1.86

>  <TopoPSA>
186.07

>  <MMFF94 Energy>
-119.09

$$$$
Nc1ncnc2c1ncn2C1OC(COP(=O)(O)OP(=O)(O)OP(=O)(O)O)C(O)C1O
Actelion Java MolfileCreator 2.0

  0  0  0  0  0  0              0 V3000
M  V30 BEGIN CTAB
M  V30 COUNTS 47 49 0 0 0
M  V30 BEGIN ATOM
M  V30 1 P -0.9148 0.0 -5.1642 0
M  V30 2 O -1.6215 -1.026 -5.982 0
M  V30 3 O -0.3089 -0.4833 -3.7877 0
M  V30 4 O -1.797 1.2501 -4.7368 0
M  V30 5 O 0.3335 0.6762 -5.9029 0
M  V30 6 P 0.6245 -1.7397 -3.5883 0
M  V30 7 P -3.1262 1.1378 -3.8914 0
M  V30 8 O 1.7581 -1.8352 -4.5525 0
M  V30 9 O 1.0077 -1.7224 -2.0283 0
M  V30 10 O -0.3662 -2.9917 -3.6888 0
M  V30 11 O -4.4031 1.4728 -4.5766 0
M  V30 12 O -2.8804 2.0797 -2.6163 0
M  V30 13 O -3.1515 -0.3018 -3.2028 0
M  V30 14 C -0.0398 -1.5205 -1.0799 0
M  V30 15 C -0.188 -0.0307 -0.7335 0
M  V30 16 O 0.9353 0.3694 0.0899 0
M  V30 17 C -1.4492 0.2518 0.0787 0
M  V30 18 C 0.4403 0.6909 1.4127 0
M  V30 19 O -1.8641 1.6196 -0.0839 0
M  V30 20 C -0.9626 0.0846 1.5074 0
M  V30 21 N 1.3589 0.1644 2.4015 0
M  V30 22 O -1.8347 0.74 2.4202 0
M  V30 23 C 1.5475 0.6762 3.656 0
M  V30 24 C 2.1776 -0.9263 2.2744 0
M  V30 25 N 0.9665 1.757 4.2008 0
M  V30 26 C 2.4699 -0.1692 4.2509 0
M  V30 27 N 2.8509 -1.1712 3.3795 0
M  V30 28 C 1.3901 1.9413 5.4673 0
M  V30 29 C 2.8376 0.1299 5.5738 0
M  V30 30 N 2.2766 1.2052 6.173 0
M  V30 31 N 3.7425 -0.6195 6.29 0
M  V30 32 H 0.9378 0.0207 -6.3054 0
M  V30 33 H 0.1183 -3.798 -3.9519 0
M  V30 34 H -3.3103 2.9469 -2.7686 0
M  V30 35 H -3.7885 -0.8909 -3.6582 0
M  V30 36 H -0.9789 -1.9219 -1.4743 0
M  V30 37 H 0.2264 -2.1015 -0.1915 0
M  V30 38 H -0.1432 0.5934 -1.6292 0
M  V30 39 H -2.3067 -0.3818 -0.1645 0
M  V30 40 H 0.4299 1.7827 1.513 0
M  V30 41 H -2.2094 1.7128 -1.0008 0
M  V30 42 H -0.917 -0.9778 1.7734 0
M  V30 43 H -2.0951 1.5781 1.9838 0
M  V30 44 H 2.2465 -1.5023 1.3601 0
M  V30 45 H 0.9644 2.7931 5.9901 0
M  V30 46 H 3.9562 -0.3367 7.2323 0
M  V30 47 H 4.1726 -1.42 5.8505 0
M  V30 END ATOM
M  V30 BEGIN BOND
M  V30 1 2 1 2
M  V30 2 1 1 3
M  V30 3 1 1 4
M  V30 4 1 1 5
M  V30 5 1 3 6
M  V30 6 1 4 7
M  V30 7 2 6 8
M  V30 8 1 6 9
M  V30 9 1 6 10
M  V30 10 2 7 11
M  V30 11 1 7 12
M  V30 12 1 7 13
M  V30 13 1 9 14
M  V30 14 1 14 15
M  V30 15 1 15 16
M  V30 16 1 15 17
M  V30 17 1 16 18
M  V30 18 1 17 19
M  V30 19 1 17 20
M  V30 20 1 18 21
M  V30 21 1 20 22
M  V30 22 1 21 23
M  V30 23 1 21 24
M  V30 24 2 23 25
M  V30 25 1 23 26
M  V30 26 2 24 27
M  V30 27 1 25 28
M  V30 28 2 26 29
M  V30 29 2 28 30
M  V30 30 1 29 31
M  V30 31 1 18 20
M  V30 32 1 26 27
M  V30 33 1 29 30
M  V30 34 1 5 32
M  V30 35 1 10 33
M  V30 36 1 12 34
M  V30 37 1 13 35
M  V30 38 1 14 36
M  V30 39 1 14 37
M  V30 40 1 15 38
M  V30 41 1 17 39
M  V30 42 1 18 40
M  V30 43 1 19 41
M  V30 44 1 20 42
M  V30 45 1 22 43
M  V30 46 1 24 44
M  V30 47 1 28 45
M  V30 48 1 31 46
M  V30 49 1 31 47
M  V30 END BOND
M  V30 END CTAB
M  END
>  <level_0>
5919

>  <index>
5919

>  <NO.>
5920

>  <Name>
adenosine triphosphate

>  <SMILES>
Nc1ncnc2c1ncn2C1OC(COP(=O)(O)OP(=O)(O)OP(=O)(O)O)C(O)C1O

>  <logBB>


>  <Class>
-1

>  <MW>
507.0

>  <nHBAcc>
13

>  <nHBDon>
7

>  <SLogP>
-1.63

>  <TopoPSA>
279.13

>  <MMFF94 Energy>
-487.98

$$$$
Nc1ncnc2nc[nH]c12
Actelion Java MolfileCreator 2.0

  0  0  0  0  0  0              0 V3000
M  V30 BEGIN CTAB
M  V30 COUNTS 15 16 0 0 0
M  V30 BEGIN ATOM
M  V30 1 N -0.8647 -1.4153 1.1007 0
M  V30 2 C -1.0361 -0.3834 0.2578 0
M  V30 3 C 0.3922 -1.7512 1.4621 0
M  V30 4 N -2.3118 -0.0443 -0.1073 0
M  V30 5 C 0.1 0.2636 -0.1806 0
M  V30 6 N 1.5427 -1.1797 1.0855 0
M  V30 7 N 0.3517 1.3189 -1.0116 0
M  V30 8 C 1.35 -0.1503 0.2432 0
M  V30 9 C 1.7073 1.4973 -1.0569 0
M  V30 10 N 2.3386 0.6221 -0.3068 0
M  V30 11 H 0.4793 -2.5912 2.1445 0
M  V30 12 H -2.5357 0.7096 -0.7304 0
M  V30 13 H -3.0479 -0.6096 0.2943 0
M  V30 14 H -0.337 1.8683 -1.5036 0
M  V30 15 H 2.1722 2.2748 -1.6489 0
M  V30 END ATOM
M  V30 BEGIN BOND
M  V30 1 2 1 2
M  V30 2 1 1 3
M  V30 3 1 2 4
M  V30 4 1 2 5
M  V30 5 2 3 6
M  V30 6 1 5 7
M  V30 7 2 5 8
M  V30 8 1 7 9
M  V30 9 1 8 10
M  V30 10 1 6 8
M  V30 11 2 9 10
M  V30 12 1 3 11
M  V30 13 1 4 12
M  V30 14 1 4 13
M  V30 15 1 7 14
M  V30 16 1 9 15
M  V30 END BOND
M  V30 END CTAB
M  END
>  <level_0>
5920

>  <index>
5920

>  <NO.>
5921

>  <Name>
adenine

>  <SMILES>
Nc1ncnc2nc[nH]c12

>  <logBB>


>  <Class>
-1

>  <MW>
135.05

>  <nHBAcc>
4

>  <nHBDon>
2

>  <SLogP>
-0.06

>  <TopoPSA>
80.48

>  <MMFF94 Energy>
-83.259

$$$$
O=C(CCCc1ccccc1)OCC(COC(=O)CCCc1ccccc1)OC(=O)CCCc1ccccc1
Actelion Java MolfileCreator 2.0

  0  0  0  0  0  0              0 V3000
M  V30 BEGIN CTAB
M  V30 COUNTS 77 79 0 0 0
M  V30 BEGIN ATOM
M  V30 1 O -1.7422 -1.5045 -0.8708 0
M  V30 2 C -1.1604 -0.429 -0.8835 0
M  V30 3 O -1.2478 0.54 0.0668 0
M  V30 4 C -0.1605 -0.0307 -1.936 0
M  V30 5 C -1.9535 0.189 1.2834 0
M  V30 6 C 1.2288 -0.4766 -1.4963 0
M  V30 7 C -0.9048 0.0105 2.3846 0
M  V30 8 C -2.9107 1.331 1.624 0
M  V30 9 C 2.2899 -0.1494 -2.544 0
M  V30 10 O -0.0361 -1.0773 2.021 0
M  V30 11 O -3.9524 1.3662 0.6326 0
M  V30 12 C 3.6547 -0.6069 -2.0927 0
M  V30 13 C 1.0961 -1.1762 2.7716 0
M  V30 14 C -4.8682 2.3583 0.817 0
M  V30 15 C 4.4964 0.2585 -1.3815 0
M  V30 16 C 4.0845 -1.916 -2.3483 0
M  V30 17 O 1.3548 -0.4749 3.7383 0
M  V30 18 C 1.9674 -2.2798 2.2212 0
M  V30 19 O -4.8545 3.157 1.7424 0
M  V30 20 C -5.8932 2.3083 -0.2904 0
M  V30 21 C 5.7504 -0.1737 -0.9474 0
M  V30 22 C 5.3381 -2.3466 -1.912 0
M  V30 23 C 3.3529 -2.2848 2.8626 0
M  V30 24 C -6.9426 3.411 -0.1412 0
M  V30 25 C 6.1715 -1.4751 -1.2141 0
M  V30 26 C 4.2557 -3.3351 2.2138 0
M  V30 27 C -8.0487 3.3288 -1.1973 0
M  V30 28 C 5.616 -3.3906 2.8626 0
M  V30 29 C -7.5622 3.5775 -2.6035 0
M  V30 30 C 6.5659 -2.3927 2.606 0
M  V30 31 C 5.9451 -4.4304 3.7416 0
M  V30 32 C -7.1679 4.8619 -3.0029 0
M  V30 33 C -7.4909 2.5276 -3.5288 0
M  V30 34 C 7.823 -2.4381 3.2102 0
M  V30 35 C 7.203 -4.4749 4.3453 0
M  V30 36 C -6.7084 5.0902 -4.3009 0
M  V30 37 C -7.031 2.7578 -4.8264 0
M  V30 38 C 8.1416 -3.4798 4.079 0
M  V30 39 C -6.6396 4.0383 -5.2119 0
M  V30 40 H -0.2064 1.0523 -2.0957 0
M  V30 41 H -0.4509 -0.5037 -2.8807 0
M  V30 42 H -2.5232 -0.7378 1.1504 0
M  V30 43 H 1.2196 -1.5564 -1.297 0
M  V30 44 H 1.4846 0.004 -0.5426 0
M  V30 45 H -0.3119 0.9284 2.4818 0
M  V30 46 H -1.3861 -0.2252 3.3402 0
M  V30 47 H -3.3618 1.166 2.6093 0
M  V30 48 H -2.3787 2.2898 1.6096 0
M  V30 49 H 2.0426 -0.6281 -3.4998 0
M  V30 50 H 2.3097 0.9298 -2.7407 0
M  V30 51 H 4.1809 1.2762 -1.1626 0
M  V30 52 H 3.4442 -2.6088 -2.8897 0
M  V30 53 H 2.0691 -2.1267 1.141 0
M  V30 54 H 1.4644 -3.2363 2.3996 0
M  V30 55 H -6.3796 1.3271 -0.2602 0
M  V30 56 H -5.3612 2.4172 -1.2413 0
M  V30 57 H 6.3994 0.5058 -0.4012 0
M  V30 58 H 5.665 -3.3629 -2.1159 0
M  V30 59 H 3.2601 -2.4809 3.9388 0
M  V30 60 H 3.8061 -1.2894 2.7689 0
M  V30 61 H -6.4535 4.3927 -0.1739 0
M  V30 62 H -7.4078 3.3331 0.8498 0
M  V30 63 H 7.1477 -1.8124 -0.8754 0
M  V30 64 H 3.7786 -4.3217 2.2699 0
M  V30 65 H 4.3803 -3.1206 1.1453 0
M  V30 66 H -8.5447 2.352 -1.1361 0
M  V30 67 H -8.8237 4.071 -0.966 0
M  V30 68 H 6.327 -1.571 1.9353 0
M  V30 69 H 5.2231 -5.2127 3.9638 0
M  V30 70 H -7.2183 5.694 -2.304 0
M  V30 71 H -7.7922 1.5216 -3.2455 0
M  V30 72 H 8.5519 -1.6587 3.0057 0
M  V30 73 H 7.4494 -5.2856 5.0258 0
M  V30 74 H -6.4059 6.09 -4.6011 0
M  V30 75 H -6.9796 1.9372 -5.5373 0
M  V30 76 H 9.1196 -3.5144 4.5511 0
M  V30 77 H -6.2832 4.217 -6.2228 0
M  V30 END ATOM
M  V30 BEGIN BOND
M  V30 1 2 1 2
M  V30 2 1 2 3
M  V30 3 1 2 4
M  V30 4 1 3 5
M  V30 5 1 4 6
M  V30 6 1 5 7
M  V30 7 1 5 8
M  V30 8 1 6 9
M  V30 9 1 7 10
M  V30 10 1 8 11
M  V30 11 1 9 12
M  V30 12 1 10 13
M  V30 13 1 11 14
M  V30 14 2 12 15
M  V30 15 1 12 16
M  V30 16 2 13 17
M  V30 17 1 13 18
M  V30 18 2 14 19
M  V30 19 1 14 20
M  V30 20 1 15 21
M  V30 21 2 16 22
M  V30 22 1 18 23
M  V30 23 1 20 24
M  V30 24 2 21 25
M  V30 25 1 23 26
M  V30 26 1 24 27
M  V30 27 1 26 28
M  V30 28 1 27 29
M  V30 29 2 28 30
M  V30 30 1 28 31
M  V30 31 2 29 32
M  V30 32 1 29 33
M  V30 33 1 30 34
M  V30 34 2 31 35
M  V30 35 1 32 36
M  V30 36 2 33 37
M  V30 37 2 34 38
M  V30 38 2 36 39
M  V30 39 1 22 25
M  V30 40 1 35 38
M  V30 41 1 37 39
M  V30 42 1 4 40
M  V30 43 1 4 41
M  V30 44 1 5 42
M  V30 45 1 6 43
M  V30 46 1 6 44
M  V30 47 1 7 45
M  V30 48 1 7 46
M  V30 49 1 8 47
M  V30 50 1 8 48
M  V30 51 1 9 49
M  V30 52 1 9 50
M  V30 53 1 15 51
M  V30 54 1 16 52
M  V30 55 1 18 53
M  V30 56 1 18 54
M  V30 57 1 20 55
M  V30 58 1 20 56
M  V30 59 1 21 57
M  V30 60 1 22 58
M  V30 61 1 23 59
M  V30 62 1 23 60
M  V30 63 1 24 61
M  V30 64 1 24 62
M  V30 65 1 25 63
M  V30 66 1 26 64
M  V30 67 1 26 65
M  V30 68 1 27 66
M  V30 69 1 27 67
M  V30 70 1 30 68
M  V30 71 1 31 69
M  V30 72 1 32 70
M  V30 73 1 33 71
M  V30 74 1 34 72
M  V30 75 1 35 73
M  V30 76 1 36 74
M  V30 77 1 37 75
M  V30 78 1 38 76
M  V30 79 1 39 77
M  V30 END BOND
M  V30 END CTAB
M  END
>  <level_0>
5922

>  <index>
5922

>  <NO.>
5923

>  <Name>
glycerol phenylbutyrate

>  <SMILES>
O=C(CCCc1ccccc1)OCC(COC(=O)CCCc1ccccc1)OC(=O)CCCc1ccccc1

>  <logBB>


>  <Class>
-1

>  <MW>
530.27

>  <nHBAcc>
6

>  <nHBDon>
0

>  <SLogP>
6.05

>  <TopoPSA>
78.9

>  <MMFF94 Energy>
39.763

$$$$
O=C(NCC(O)CO)c1c(I)c(C(=O)NCC(O)CO)c(I)c(N(CCO)C(=O)CO)c1I
Actelion Java MolfileCreator 2.0

  0  0  0  0  0  0              0 V3000
M  V30 BEGIN CTAB
M  V30 COUNTS 57 57 0 0 0
M  V30 BEGIN ATOM
M  V30 1 I -2.5405 -0.737 2.1304 0
M  V30 2 C -0.6277 -0.5449 1.1605 0
M  V30 3 C 0.3032 0.436 1.5831 0
M  V30 4 C -0.3289 -1.3749 0.0592 0
M  V30 5 N 0.0282 1.2723 2.7138 0
M  V30 6 C 1.4955 0.6183 0.8396 0
M  V30 7 C 0.8866 -1.2337 -0.6363 0
M  V30 8 C -1.2911 -2.4125 -0.362 0
M  V30 9 C -0.7894 2.382 2.5156 0
M  V30 10 C 0.7396 0.9526 3.9746 0
M  V30 11 I 2.8213 2.2544 1.3042 0
M  V30 12 C 1.7848 -0.22 -0.256 0
M  V30 13 I 1.3545 -2.535 -2.2691 0
M  V30 14 O -1.2512 -3.5266 0.1401 0
M  V30 15 N -2.1916 -2.0144 -1.3259 0
M  V30 16 O -1.2715 2.6786 1.4161 0
M  V30 17 C -1.0856 3.27 3.7276 0
M  V30 18 C -0.0031 -0.0241 4.8894 0
M  V30 19 C 3.0502 -0.0443 -0.9936 0
M  V30 20 C -3.1244 -2.9611 -1.9258 0
M  V30 21 O -2.1524 4.1746 3.478 0
M  V30 22 O 0.1405 -1.3498 4.3935 0
M  V30 23 O 4.0658 -0.5913 -0.5885 0
M  V30 24 N 2.9595 0.7453 -2.1133 0
M  V30 25 C -4.266 -3.3494 -0.9727 0
M  V30 26 C 4.0962 0.9727 -2.9888 0
M  V30 27 O -4.9792 -2.1731 -0.5742 0
M  V30 28 C -5.2426 -4.3208 -1.6407 0
M  V30 29 C 3.9411 2.2648 -3.806 0
M  V30 30 O -4.6102 -5.5396 -2.0113 0
M  V30 31 O 2.6324 2.2885 -4.3953 0
M  V30 32 C 4.159 3.5258 -2.9609 0
M  V30 33 O 5.5073 3.6494 -2.5308 0
M  V30 34 H 0.9095 1.8861 4.5193 0
M  V30 35 H 1.7227 0.5335 3.7331 0
M  V30 36 H -2.1625 -1.0731 -1.6985 0
M  V30 37 H -1.3635 2.6587 4.5891 0
M  V30 38 H -0.1919 3.8544 3.9636 0
M  V30 39 H 0.441 3.0E-4 5.8894 0
M  V30 40 H -1.0653 0.2219 4.9718 0
M  V30 41 H -3.5248 -2.4666 -2.8175 0
M  V30 42 H -2.5579 -3.8447 -2.2384 0
M  V30 43 H -2.1888 4.2863 2.5061 0
M  V30 44 H -0.3938 -1.935 4.9592 0
M  V30 45 H 2.0673 1.102 -2.4371 0
M  V30 46 H -3.8601 -3.8165 -0.0686 0
M  V30 47 H 4.1145 0.1148 -3.6707 0
M  V30 48 H 5.0274 0.9632 -2.4131 0
M  V30 49 H -4.3267 -1.6157 -0.1115 0
M  V30 50 H -6.0779 -4.5484 -0.969 0
M  V30 51 H -5.6792 -3.8714 -2.5394 0
M  V30 52 H 4.6791 2.2422 -4.6164 0
M  V30 53 H -4.2864 -5.9604 -1.1946 0
M  V30 54 H 2.6109 3.0294 -5.0265 0
M  V30 55 H 3.8962 4.4218 -3.5346 0
M  V30 56 H 3.5099 3.5237 -2.0794 0
M  V30 57 H 6.0611 3.8268 -3.3099 0
M  V30 END ATOM
M  V30 BEGIN BOND
M  V30 1 1 1 2
M  V30 2 2 2 3
M  V30 3 1 2 4
M  V30 4 1 3 5
M  V30 5 1 3 6
M  V30 6 2 4 7
M  V30 7 1 4 8
M  V30 8 1 5 9
M  V30 9 1 5 10
M  V30 10 1 6 11
M  V30 11 2 6 12
M  V30 12 1 7 13
M  V30 13 2 8 14
M  V30 14 1 8 15
M  V30 15 2 9 16
M  V30 16 1 9 17
M  V30 17 1 10 18
M  V30 18 1 12 19
M  V30 19 1 15 20
M  V30 20 1 17 21
M  V30 21 1 18 22
M  V30 22 2 19 23
M  V30 23 1 19 24
M  V30 24 1 20 25
M  V30 25 1 24 26
M  V30 26 1 25 27
M  V30 27 1 25 28
M  V30 28 1 26 29
M  V30 29 1 28 30
M  V30 30 1 29 31
M  V30 31 1 29 32
M  V30 32 1 32 33
M  V30 33 1 7 12
M  V30 34 1 10 34
M  V30 35 1 10 35
M  V30 36 1 15 36
M  V30 37 1 17 37
M  V30 38 1 17 38
M  V30 39 1 18 39
M  V30 40 1 18 40
M  V30 41 1 20 41
M  V30 42 1 20 42
M  V30 43 1 21 43
M  V30 44 1 22 44
M  V30 45 1 24 45
M  V30 46 1 25 46
M  V30 47 1 26 47
M  V30 48 1 26 48
M  V30 49 1 27 49
M  V30 50 1 28 50
M  V30 51 1 28 51
M  V30 52 1 29 52
M  V30 53 1 30 53
M  V30 54 1 31 54
M  V30 55 1 32 55
M  V30 56 1 32 56
M  V30 57 1 33 57
M  V30 END BOND
M  V30 END CTAB
M  END
>  <level_0>
5924

>  <index>
5924

>  <NO.>
5925

>  <Name>
ioversol

>  <SMILES>
O=C(NCC(O)CO)c1c(I)c(C(=O)NCC(O)CO)c(I)c(N(CCO)C(=O)CO)c1I

>  <logBB>


>  <Class>
-1

>  <MW>
806.86

>  <nHBAcc>
9

>  <nHBDon>
8

>  <SLogP>
-2.02

>  <TopoPSA>
199.89

>  <MMFF94 Energy>
122.52

$$$$
O=C(Nc1c(Cl)cncc1Cl)c1ccc(OC(F)F)c(OCC2CC2)c1
Actelion Java MolfileCreator 2.0

  0  0  0  0  0  0              0 V3000
M  V30 BEGIN CTAB
M  V30 COUNTS 40 42 0 0 0
M  V30 BEGIN ATOM
M  V30 1 Cl -5.0129 2.1343 0.6563 0
M  V30 2 C -4.4817 2.7873 -0.8497 0
M  V30 3 C -3.2404 2.4821 -1.4241 0
M  V30 4 C -5.3587 3.5875 -1.5725 0
M  V30 5 N -2.2773 1.6834 -0.7601 0
M  V30 6 C -2.959 2.9551 -2.7118 0
M  V30 7 N -5.0998 4.0781 -2.8095 0
M  V30 8 C -1.684 2.0867 0.4223 0
M  V30 9 Cl -1.4815 2.5812 -3.5207 0
M  V30 10 C -3.9044 3.7465 -3.3501 0
M  V30 11 O -1.9582 3.1201 1.0223 0
M  V30 12 C -0.6429 1.1794 0.9754 0
M  V30 13 C 0.208 0.4322 0.1521 0
M  V30 14 C -0.5079 1.1044 2.3702 0
M  V30 15 C 1.1601 -0.4054 0.7324 0
M  V30 16 C 0.4637 0.2808 2.9433 0
M  V30 17 O 1.9874 -1.1139 -0.0969 0
M  V30 18 C 1.3151 -0.4531 2.122 0
M  V30 19 C 1.5572 -2.4785 -0.1975 0
M  V30 20 O 2.2447 -1.2588 2.7184 0
M  V30 21 C 2.6221 -3.2395 -0.9244 0
M  V30 22 C 3.5538 -0.7286 2.5456 0
M  V30 23 C 3.8141 -3.7842 -0.1793 0
M  V30 24 C 2.7755 -4.7255 -0.7261 0
M  V30 25 F 3.7125 0.309 3.4061 0
M  V30 26 F 4.4274 -1.6918 2.9383 0
M  V30 27 H -6.3344 3.8537 -1.1732 0
M  V30 28 H -1.9294 0.8767 -1.2608 0
M  V30 29 H -3.7267 4.1472 -4.3446 0
M  V30 30 H 0.166 0.5071 -0.9295 0
M  V30 31 H -1.1605 1.6931 3.014 0
M  V30 32 H 0.5641 0.2286 4.0247 0
M  V30 33 H 0.6259 -2.5228 -0.7751 0
M  V30 34 H 1.3783 -2.9182 0.7916 0
M  V30 35 H 2.7883 -2.8453 -1.9208 0
M  V30 36 H 3.8057 -0.4184 1.5269 0
M  V30 37 H 3.8638 -3.6544 0.8963 0
M  V30 38 H 4.7792 -3.7493 -0.6721 0
M  V30 39 H 2.1294 -5.2306 -0.0168 0
M  V30 40 H 3.0426 -5.3283 -1.5869 0
M  V30 END ATOM
M  V30 BEGIN BOND
M  V30 1 1 1 2
M  V30 2 2 2 3
M  V30 3 1 2 4
M  V30 4 1 3 5
M  V30 5 1 3 6
M  V30 6 2 4 7
M  V30 7 1 5 8
M  V30 8 1 6 9
M  V30 9 2 6 10
M  V30 10 2 8 11
M  V30 11 1 8 12
M  V30 12 2 12 13
M  V30 13 1 12 14
M  V30 14 1 13 15
M  V30 15 2 14 16
M  V30 16 1 15 17
M  V30 17 2 15 18
M  V30 18 1 17 19
M  V30 19 1 18 20
M  V30 20 1 19 21
M  V30 21 1 20 22
M  V30 22 1 21 23
M  V30 23 1 21 24
M  V30 24 1 22 25
M  V30 25 1 22 26
M  V30 26 1 7 10
M  V30 27 1 16 18
M  V30 28 1 23 24
M  V30 29 1 4 27
M  V30 30 1 5 28
M  V30 31 1 10 29
M  V30 32 1 13 30
M  V30 33 1 14 31
M  V30 34 1 16 32
M  V30 35 1 19 33
M  V30 36 1 19 34
M  V30 37 1 21 35
M  V30 38 1 22 36
M  V30 39 1 23 37
M  V30 40 1 23 38
M  V30 41 1 24 39
M  V30 42 1 24 40
M  V30 END BOND
M  V30 END CTAB
M  END
>  <level_0>
5927

>  <index>
5927

>  <NO.>
5928

>  <Name>
roflumilast

>  <SMILES>
O=C(Nc1c(Cl)cncc1Cl)c1ccc(OC(F)F)c(OCC2CC2)c1

>  <logBB>


>  <Class>
-1

>  <MW>
402.03

>  <nHBAcc>
4

>  <nHBDon>
1

>  <SLogP>
5.03

>  <TopoPSA>
60.45

>  <MMFF94 Energy>
103.34

$$$$
O=C(O)CCCO
Actelion Java MolfileCreator 2.0

  0  0  0  0  0  0              0 V3000
M  V30 BEGIN CTAB
M  V30 COUNTS 15 14 0 0 0
M  V30 BEGIN ATOM
M  V30 1 O -1.4485 1.5248 -1.6773 0
M  V30 2 C -1.5729 0.4088 -1.2028 0
M  V30 3 O -2.6281 -0.3611 -1.5353 0
M  V30 4 C -0.6652 -0.2765 -0.2197 0
M  V30 5 C 0.558 0.5817 0.1014 0
M  V30 6 C 1.4559 -0.0688 1.1432 0
M  V30 7 O 1.9344 -1.3134 0.6553 0
M  V30 8 H -3.1299 0.1881 -2.1733 0
M  V30 9 H -0.353 -1.232 -0.6547 0
M  V30 10 H -1.2367 -0.4687 0.6949 0
M  V30 11 H 0.2419 1.5676 0.463 0
M  V30 12 H 1.1289 0.7432 -0.8216 0
M  V30 13 H 2.3156 0.5753 1.3531 0
M  V30 14 H 0.911 -0.2429 2.0766 0
M  V30 15 H 2.5379 -1.672 1.3289 0
M  V30 END ATOM
M  V30 BEGIN BOND
M  V30 1 2 1 2
M  V30 2 1 2 3
M  V30 3 1 2 4
M  V30 4 1 4 5
M  V30 5 1 5 6
M  V30 6 1 6 7
M  V30 7 1 3 8
M  V30 8 1 4 9
M  V30 9 1 4 10
M  V30 10 1 5 11
M  V30 11 1 5 12
M  V30 12 1 6 13
M  V30 13 1 6 14
M  V30 14 1 7 15
M  V30 END BOND
M  V30 END CTAB
M  END
>  <level_0>
5931

>  <index>
5931

>  <NO.>
5932

>  <Name>
gamma hydroxybutyric acid

>  <SMILES>
O=C(O)CCCO

>  <logBB>


>  <Class>
1

>  <MW>
104.05

>  <nHBAcc>
2

>  <nHBDon>
2

>  <SLogP>
-0.16

>  <TopoPSA>
57.53

>  <MMFF94 Energy>
-30.131

$$$$
O=C(O)CN(CCN(CC(=O)O)CC(=O)O)CCN(CC(=O)O)C(COCc1ccccc1)C(=O)O
Actelion Java MolfileCreator 2.0

  0  0  0  0  0  0              0 V3000
M  V30 BEGIN CTAB
M  V30 COUNTS 67 67 0 0 0
M  V30 BEGIN ATOM
M  V30 1 O 1.6587 2.7657 2.8448 0
M  V30 2 C 1.1553 1.6598 2.983 0
M  V30 3 O 1.5473 0.8949 4.0277 0
M  V30 4 C 0.1614 0.9726 2.0299 0 CFG=1
M  V30 5 N -0.7108 -0.0231 2.7348 0
M  V30 6 C -0.5472 2.0335 1.158 0
M  V30 7 C -1.5973 0.6075 3.7441 0
M  V30 8 C -1.4944 -0.8705 1.8101 0
M  V30 9 O -1.4316 2.8532 1.9332 0
M  V30 10 C -2.0024 -0.3741 4.8437 0
M  V30 11 C -0.6518 -1.7628 0.8564 0
M  V30 12 C -2.164 3.784 1.1325 0
M  V30 13 O -1.8201 -1.5795 4.9046 0
M  V30 14 O -2.6781 0.2441 5.8407 0
M  V30 15 N -0.2545 -1.1013 -0.4048 0
M  V30 16 C -1.3395 4.9628 0.6738 0
M  V30 17 C -1.3819 -1.0409 -1.3628 0
M  V30 18 C 0.9565 -1.7308 -0.9832 0
M  V30 19 C -0.3474 5.5182 1.4944 0
M  V30 20 C -1.5968 5.5568 -0.5704 0
M  V30 21 C -1.0428 -0.1941 -2.5798 0
M  V30 22 C 0.848 -3.2183 -1.4133 0
M  V30 23 C 0.389 6.6248 1.0693 0
M  V30 24 C -0.8616 6.6661 -0.9931 0
M  V30 25 O -0.6223 -0.6056 -3.6504 0
M  V30 26 O -1.2103 1.1294 -2.373 0
M  V30 27 N 2.1053 -3.7124 -2.007 0
M  V30 28 C 0.1324 7.1981 -0.1742 0
M  V30 29 C 2.2137 -3.3352 -3.4394 0
M  V30 30 C 2.2932 -5.1694 -1.779 0
M  V30 31 C 3.6336 -3.4811 -3.9814 0
M  V30 32 C 1.2095 -6.0743 -2.359 0
M  V30 33 O 4.6523 -3.785 -3.3826 0
M  V30 34 O 3.6932 -3.2184 -5.3064 0
M  V30 35 O 0.1824 -5.7589 -2.9374 0
M  V30 36 O 1.4889 -7.3811 -2.1585 0
M  V30 37 H 2.1993 1.4532 4.4966 0
M  V30 38 H 0.8356 0.4117 1.3726 0
M  V30 39 H -1.1238 1.5427 0.3688 0
M  V30 40 H 0.2027 2.6675 0.6709 0
M  V30 41 H -1.0823 1.4259 4.2591 0
M  V30 42 H -2.5117 1.0002 3.2854 0
M  V30 43 H -2.2253 -0.2726 1.2547 0
M  V30 44 H -2.092 -1.5722 2.4043 0
M  V30 45 H 0.2351 -2.0929 1.4139 0
M  V30 46 H -1.221 -2.6749 0.6327 0
M  V30 47 H -2.9826 4.167 1.7524 0
M  V30 48 H -2.6186 3.2581 0.2843 0
M  V30 49 H -2.8622 -0.4839 6.4703 0
M  V30 50 H -1.7008 -2.0319 -1.704 0
M  V30 51 H -2.2671 -0.5841 -0.9057 0
M  V30 52 H 1.7672 -1.6426 -0.2464 0
M  V30 53 H 1.2955 -1.1163 -1.8241 0
M  V30 54 H -0.1335 5.0785 2.4674 0
M  V30 55 H -2.3731 5.1587 -1.2198 0
M  V30 56 H 0.6147 -3.8011 -0.5136 0
M  V30 57 H 0.0149 -3.3597 -2.1096 0
M  V30 58 H 1.1642 7.0356 1.7109 0
M  V30 59 H -1.0655 7.1172 -1.9606 0
M  V30 60 H -0.8865 1.5391 -3.2022 0
M  V30 61 H 0.7066 8.06 -0.5032 0
M  V30 62 H 1.536 -3.9246 -4.0649 0
M  V30 63 H 1.9626 -2.2767 -3.5675 0
M  V30 64 H 3.2555 -5.495 -2.1858 0
M  V30 65 H 2.3311 -5.3492 -0.6976 0
M  V30 66 H 4.644 -3.3262 -5.519 0
M  V30 67 H 0.7316 -7.8521 -2.5655 0
M  V30 END ATOM
M  V30 BEGIN BOND
M  V30 1 2 1 2
M  V30 2 1 2 3
M  V30 3 1 2 4
M  V30 4 1 4 5
M  V30 5 1 4 6
M  V30 6 1 5 7
M  V30 7 1 5 8
M  V30 8 1 6 9
M  V30 9 1 7 10
M  V30 10 1 8 11
M  V30 11 1 9 12
M  V30 12 2 10 13
M  V30 13 1 10 14
M  V30 14 1 11 15
M  V30 15 1 12 16
M  V30 16 1 15 17
M  V30 17 1 15 18
M  V30 18 2 16 19
M  V30 19 1 16 20
M  V30 20 1 17 21
M  V30 21 1 18 22
M  V30 22 1 19 23
M  V30 23 2 20 24
M  V30 24 2 21 25
M  V30 25 1 21 26
M  V30 26 1 22 27
M  V30 27 2 23 28
M  V30 28 1 27 29
M  V30 29 1 27 30
M  V30 30 1 29 31
M  V30 31 1 30 32
M  V30 32 2 31 33
M  V30 33 1 31 34
M  V30 34 2 32 35
M  V30 35 1 32 36
M  V30 36 1 24 28
M  V30 37 1 3 37
M  V30 38 1 4 38
M  V30 39 1 6 39
M  V30 40 1 6 40
M  V30 41 1 7 41
M  V30 42 1 7 42
M  V30 43 1 8 43
M  V30 44 1 8 44
M  V30 45 1 11 45
M  V30 46 1 11 46
M  V30 47 1 12 47
M  V30 48 1 12 48
M  V30 49 1 14 49
M  V30 50 1 17 50
M  V30 51 1 17 51
M  V30 52 1 18 52
M  V30 53 1 18 53
M  V30 54 1 19 54
M  V30 55 1 20 55
M  V30 56 1 22 56
M  V30 57 1 22 57
M  V30 58 1 23 58
M  V30 59 1 24 59
M  V30 60 1 26 60
M  V30 61 1 28 61
M  V30 62 1 29 62
M  V30 63 1 29 63
M  V30 64 1 30 64
M  V30 65 1 30 65
M  V30 66 1 34 66
M  V30 67 1 36 67
M  V30 END BOND
M  V30 BEGIN COLLECTION
M  V30 MDLV30/STERAC1 ATOMS=(1 4)
M  V30 END COLLECTION
M  V30 END CTAB
M  END
>  <level_0>
5932

>  <index>
5932

>  <NO.>
5933

>  <Name>
gadobenate dimeglumine

>  <SMILES>
O=C(O)CN(CCN(CC(=O)O)CC(=O)O)CCN(CC(=O)O)C(COCc1ccccc1)C(=O)O

>  <logBB>


>  <Class>
-1

>  <MW>
513.2

>  <nHBAcc>
9

>  <nHBDon>
5

>  <SLogP>
-1.1

>  <TopoPSA>
205.45

>  <MMFF94 Energy>
206.22

$$$$
O=C(O)CN(CCN(CC(=O)O)CC(=O)O)CCN(CC(=O)O)CC(=O)O
Actelion Java MolfileCreator 2.0

  0  0  0  0  0  0              0 V3000
M  V30 BEGIN CTAB
M  V30 COUNTS 50 49 0 0 0
M  V30 BEGIN ATOM
M  V30 1 O 1.0212 -5.3508 1.4928 0
M  V30 2 C 1.076 -4.1972 1.8866 0
M  V30 3 O 2.0184 -3.8488 2.7934 0
M  V30 4 C 0.2078 -3.0039 1.4916 0
M  V30 5 N -0.8845 -3.3823 0.5652 0
M  V30 6 C -0.3457 -3.617 -0.7979 0
M  V30 7 C -1.9972 -2.4074 0.6088 0
M  V30 8 C -1.3512 -4.2477 -1.7578 0
M  V30 9 C -1.8372 -1.0319 -0.0978 0
M  V30 10 O -2.5326 -4.4987 -1.5869 0
M  V30 11 O -0.7856 -4.5187 -2.9577 0
M  V30 12 N -0.72 -0.1986 0.3894 0
M  V30 13 C -0.9855 0.391 1.7255 0
M  V30 14 C -0.3142 0.778 -0.6441 0
M  V30 15 C -2.0597 1.4749 1.7784 0
M  V30 16 C 0.8746 1.6945 -0.2564 0
M  V30 17 O -2.6699 1.9963 0.8598 0
M  V30 18 O -2.3019 1.8666 3.0497 0
M  V30 19 N 1.3759 2.5494 -1.3547 0
M  V30 20 C 2.5852 3.3019 -0.9411 0
M  V30 21 C 0.3517 3.4514 -1.936 0
M  V30 22 C 3.822 2.41 -0.8518 0
M  V30 23 C -0.2906 4.436 -0.9635 0
M  V30 24 O 3.9459 1.2378 -1.1666 0
M  V30 25 O 4.8882 3.0854 -0.3649 0
M  V30 26 O 0.0342 4.6932 0.1842 0
M  V30 27 O -1.3316 5.0857 -1.5295 0
M  V30 28 H 2.4937 -4.6908 2.9555 0
M  V30 29 H 0.8585 -2.2364 1.0596 0
M  V30 30 H -0.2164 -2.6318 2.4318 0
M  V30 31 H 0.0319 -2.6906 -1.2439 0
M  V30 32 H 0.4875 -4.3263 -0.7479 0
M  V30 33 H -2.287 -2.2467 1.6552 0
M  V30 34 H -2.8852 -2.8839 0.1778 0
M  V30 35 H -1.7093 -1.2337 -1.1689 0
M  V30 36 H -2.7874 -0.4888 -0.0233 0
M  V30 37 H -1.5165 -4.9325 -3.4627 0
M  V30 38 H -1.2806 -0.3998 2.4228 0
M  V30 39 H -0.0578 0.8143 2.1254 0
M  V30 40 H -1.1744 1.3835 -0.9452 0
M  V30 41 H -0.0048 0.2143 -1.5346 0
M  V30 42 H 0.6027 2.3129 0.6049 0
M  V30 43 H 1.6836 1.0358 0.0818 0
M  V30 44 H -2.9822 2.5664 2.9575 0
M  V30 45 H 2.8258 4.0625 -1.6937 0
M  V30 46 H 2.4391 3.7943 0.0263 0
M  V30 47 H 0.8038 4.0335 -2.7483 0
M  V30 48 H -0.441 2.8521 -2.3957 0
M  V30 49 H 5.6023 2.4135 -0.3707 0
M  V30 50 H -1.674 5.6592 -0.8123 0
M  V30 END ATOM
M  V30 BEGIN BOND
M  V30 1 2 1 2
M  V30 2 1 2 3
M  V30 3 1 2 4
M  V30 4 1 4 5
M  V30 5 1 5 6
M  V30 6 1 5 7
M  V30 7 1 6 8
M  V30 8 1 7 9
M  V30 9 2 8 10
M  V30 10 1 8 11
M  V30 11 1 9 12
M  V30 12 1 12 13
M  V30 13 1 12 14
M  V30 14 1 13 15
M  V30 15 1 14 16
M  V30 16 2 15 17
M  V30 17 1 15 18
M  V30 18 1 16 19
M  V30 19 1 19 20
M  V30 20 1 19 21
M  V30 21 1 20 22
M  V30 22 1 21 23
M  V30 23 2 22 24
M  V30 24 1 22 25
M  V30 25 2 23 26
M  V30 26 1 23 27
M  V30 27 1 3 28
M  V30 28 1 4 29
M  V30 29 1 4 30
M  V30 30 1 6 31
M  V30 31 1 6 32
M  V30 32 1 7 33
M  V30 33 1 7 34
M  V30 34 1 9 35
M  V30 35 1 9 36
M  V30 36 1 11 37
M  V30 37 1 13 38
M  V30 38 1 13 39
M  V30 39 1 14 40
M  V30 40 1 14 41
M  V30 41 1 16 42
M  V30 42 1 16 43
M  V30 43 1 18 44
M  V30 44 1 20 45
M  V30 45 1 20 46
M  V30 46 1 21 47
M  V30 47 1 21 48
M  V30 48 1 25 49
M  V30 49 1 27 50
M  V30 END BOND
M  V30 END CTAB
M  END
>  <level_0>
5933

>  <index>
5933

>  <NO.>
5934

>  <Name>
gadopentetate dimeglumine

>  <SMILES>
O=C(O)CN(CCN(CC(=O)O)CC(=O)O)CCN(CC(=O)O)CC(=O)O

>  <logBB>


>  <Class>
-1

>  <MW>
393.14

>  <nHBAcc>
8

>  <nHBDon>
5

>  <SLogP>
-2.68

>  <TopoPSA>
196.22

>  <MMFF94 Energy>
161.5

$$$$
O=C(OCCN1CCN(c2cccc(C(F)(F)F)c2)CC1)c1ccccc1Nc1ccnc2cc(C(F)(F)F)ccc12
Actelion Java MolfileCreator 2.0

  0  0  0  0  0  0              0 V3000
M  V30 BEGIN CTAB
M  V30 COUNTS 68 72 0 0 0
M  V30 BEGIN ATOM
M  V30 1 F -3.2449 8.0456 5.8465 0
M  V30 2 C -2.0636 7.3721 5.7839 0
M  V30 3 F -1.5342 7.4243 7.0373 0
M  V30 4 F -1.2432 8.1307 5.0039 0
M  V30 5 C -2.2342 5.9658 5.2714 0
M  V30 6 C -2.6125 4.9348 6.1463 0
M  V30 7 C -2.0486 5.6616 3.9226 0
M  V30 8 C -2.8012 3.6275 5.7194 0
M  V30 9 C -2.2357 4.3549 3.4715 0
M  V30 10 N -3.1306 2.7105 6.6407 0
M  V30 11 C -2.6324 3.3198 4.3514 0
M  V30 12 C -3.2912 1.4352 6.2371 0
M  V30 13 C -2.8403 1.9732 3.9559 0
M  V30 14 C -3.1558 1.0229 4.9284 0
M  V30 15 N -2.777 1.5334 2.6173 0
M  V30 16 C -3.5065 1.9314 1.4734 0
M  V30 17 C -3.131 1.4987 0.1791 0
M  V30 18 C -4.595 2.8141 1.5824 0
M  V30 19 C -1.9982 0.5424 0.0176 0
M  V30 20 C -3.8409 1.9453 -0.951 0
M  V30 21 C -5.2929 3.254 0.4548 0
M  V30 22 O -1.546 -0.132 0.9317 0
M  V30 23 O -1.5416 0.5449 -1.2595 0
M  V30 24 C -4.9157 2.8218 -0.8109 0
M  V30 25 C -0.4315 -0.3397 -1.493 0
M  V30 26 C -0.0262 -0.2185 -2.9704 0
M  V30 27 N 1.093 -1.0358 -3.4561 0
M  V30 28 C 2.3706 -0.7232 -2.7862 0
M  V30 29 C 0.836 -2.486 -3.3574 0
M  V30 30 C 3.5595 -1.516 -3.379 0
M  V30 31 C 1.9791 -3.3357 -3.962 0
M  V30 32 N 3.2841 -2.9635 -3.379 0
M  V30 33 C 4.3283 -3.8759 -3.4823 0
M  V30 34 C 4.1604 -5.2014 -3.0505 0
M  V30 35 C 5.5896 -3.53 -3.9875 0
M  V30 36 C 5.1903 -6.1573 -3.1349 0
M  V30 37 C 6.6296 -4.4616 -4.0745 0
M  V30 38 C 6.4319 -5.7708 -3.6489 0
M  V30 39 C 4.964 -7.5595 -2.6334 0
M  V30 40 F 5.1982 -7.679 -1.2975 0
M  V30 41 F 3.6885 -7.9985 -2.8296 0
M  V30 42 F 5.7667 -8.4815 -3.2363 0
M  V30 43 H -2.7577 5.1547 7.2042 0
M  V30 44 H -1.7514 6.4344 3.2153 0
M  V30 45 H -2.0592 4.1407 2.4199 0
M  V30 46 H -3.5488 0.73 7.0221 0
M  V30 47 H -3.3206 -0.0161 4.6657 0
M  V30 48 H -2.2137 0.6892 2.4753 0
M  V30 49 H -4.9244 3.163 2.5586 0
M  V30 50 H -3.5703 1.6104 -1.9496 0
M  V30 51 H -6.1339 3.9336 0.5716 0
M  V30 52 H -5.4609 3.1622 -1.688 0
M  V30 53 H -0.7422 -1.3639 -1.261 0
M  V30 54 H 0.3977 -0.046 -0.8407 0
M  V30 55 H -0.9083 -0.4303 -3.5897 0
M  V30 56 H 0.1932 0.8365 -3.1832 0
M  V30 57 H 2.5894 0.3463 -2.8881 0
M  V30 58 H 2.308 -0.9461 -1.7136 0
M  V30 59 H 0.7037 -2.7837 -2.3097 0
M  V30 60 H -0.0902 -2.733 -3.8896 0
M  V30 61 H 3.753 -1.1756 -4.4041 0
M  V30 62 H 4.4435 -1.2912 -2.7698 0
M  V30 63 H 1.7334 -4.3892 -3.7922 0
M  V30 64 H 2.0174 -3.1826 -5.0482 0
M  V30 65 H 3.2129 -5.5008 -2.605 0
M  V30 66 H 5.7846 -2.5234 -4.3464 0
M  V30 67 H 7.5929 -4.1588 -4.4771 0
M  V30 68 H 7.249 -6.4867 -3.7164 0
M  V30 END ATOM
M  V30 BEGIN BOND
M  V30 1 1 1 2
M  V30 2 1 2 3
M  V30 3 1 2 4
M  V30 4 1 2 5
M  V30 5 2 5 6
M  V30 6 1 5 7
M  V30 7 1 6 8
M  V30 8 2 7 9
M  V30 9 2 8 10
M  V30 10 1 8 11
M  V30 11 1 10 12
M  V30 12 2 11 13
M  V30 13 2 12 14
M  V30 14 1 13 15
M  V30 15 1 15 16
M  V30 16 2 16 17
M  V30 17 1 16 18
M  V30 18 1 17 19
M  V30 19 1 17 20
M  V30 20 2 18 21
M  V30 21 2 19 22
M  V30 22 1 19 23
M  V30 23 2 20 24
M  V30 24 1 23 25
M  V30 25 1 25 26
M  V30 26 1 26 27
M  V30 27 1 27 28
M  V30 28 1 27 29
M  V30 29 1 28 30
M  V30 30 1 29 31
M  V30 31 1 30 32
M  V30 32 1 32 33
M  V30 33 2 33 34
M  V30 34 1 33 35
M  V30 35 1 34 36
M  V30 36 2 35 37
M  V30 37 2 36 38
M  V30 38 1 36 39
M  V30 39 1 39 40
M  V30 40 1 39 41
M  V30 41 1 39 42
M  V30 42 1 9 11
M  V30 43 1 13 14
M  V30 44 1 21 24
M  V30 45 1 31 32
M  V30 46 1 37 38
M  V30 47 1 6 43
M  V30 48 1 7 44
M  V30 49 1 9 45
M  V30 50 1 12 46
M  V30 51 1 14 47
M  V30 52 1 15 48
M  V30 53 1 18 49
M  V30 54 1 20 50
M  V30 55 1 21 51
M  V30 56 1 24 52
M  V30 57 1 25 53
M  V30 58 1 25 54
M  V30 59 1 26 55
M  V30 60 1 26 56
M  V30 61 1 28 57
M  V30 62 1 28 58
M  V30 63 1 29 59
M  V30 64 1 29 60
M  V30 65 1 30 61
M  V30 66 1 30 62
M  V30 67 1 31 63
M  V30 68 1 31 64
M  V30 69 1 34 65
M  V30 70 1 35 66
M  V30 71 1 37 67
M  V30 72 1 38 68
M  V30 END BOND
M  V30 END CTAB
M  END
>  <level_0>
5939

>  <index>
5939

>  <NO.>
5940

>  <Name>
antrafenine

>  <SMILES>
O=C(OCCN1CCN(c2cccc(C(F)(F)F)c2)CC1)c1ccccc1Nc1ccnc2cc(C(F)(F)F)ccc12

>  <logBB>


>  <Class>
-1

>  <MW>
588.2

>  <nHBAcc>
6

>  <nHBDon>
1

>  <SLogP>
7.0

>  <TopoPSA>
57.7

>  <MMFF94 Energy>
225.71

$$$$
O=C1OC(CO)C(O)C(O)C1O
Actelion Java MolfileCreator 2.0

  0  0  0  0  0  0              0 V3000
M  V30 BEGIN CTAB
M  V30 COUNTS 22 22 0 0 0
M  V30 BEGIN ATOM
M  V30 1 O -0.3961 -2.3788 2.1407 0
M  V30 2 C -0.0253 -1.5793 1.2882 0
M  V30 3 O 0.1526 -0.2654 1.5917 0
M  V30 4 C 0.4121 -1.9813 -0.1257 0
M  V30 5 C -0.2935 0.7123 0.6287 0
M  V30 6 O -0.004 -3.292 -0.5055 0
M  V30 7 C -0.0766 -0.9867 -1.1693 0
M  V30 8 C 0.2854 0.4379 -0.7616 0
M  V30 9 C 0.0808 2.103 1.1579 0
M  V30 10 O -1.5014 -1.1091 -1.333 0
M  V30 11 O -0.2557 1.3377 -1.7341 0
M  V30 12 O 1.4716 2.3596 0.9722 0
M  V30 13 H 1.5083 -1.9925 -0.1102 0
M  V30 14 H -1.3905 0.6698 0.6104 0
M  V30 15 H -0.9788 -3.2471 -0.5689 0
M  V30 16 H 0.3514 -1.2266 -2.1496 0
M  V30 17 H 1.3784 0.5275 -0.7665 0
M  V30 18 H -0.1394 2.176 2.2283 0
M  V30 19 H -0.4736 2.8819 0.6255 0
M  V30 20 H -1.7473 -0.3873 -1.9484 0
M  V30 21 H 0.2521 2.1682 -1.6562 0
M  V30 22 H 1.7044 3.1017 1.5597 0
M  V30 END ATOM
M  V30 BEGIN BOND
M  V30 1 2 1 2
M  V30 2 1 2 3
M  V30 3 1 2 4
M  V30 4 1 3 5
M  V30 5 1 4 6
M  V30 6 1 4 7
M  V30 7 1 5 8
M  V30 8 1 5 9
M  V30 9 1 7 10
M  V30 10 1 8 11
M  V30 11 1 9 12
M  V30 12 1 7 8
M  V30 13 1 4 13
M  V30 14 1 5 14
M  V30 15 1 6 15
M  V30 16 1 7 16
M  V30 17 1 8 17
M  V30 18 1 9 18
M  V30 19 1 9 19
M  V30 20 1 10 20
M  V30 21 1 11 21
M  V30 22 1 12 22
M  V30 END BOND
M  V30 END CTAB
M  END
>  <level_0>
5946

>  <index>
5946

>  <NO.>
5947

>  <Name>
gluconolactone

>  <SMILES>
O=C1OC(CO)C(O)C(O)C1O

>  <logBB>


>  <Class>
-1

>  <MW>
178.05

>  <nHBAcc>
6

>  <nHBDon>
4

>  <SLogP>
-3.01

>  <TopoPSA>
107.22

>  <MMFF94 Energy>
94.671

$$$$
O=C1c2c(O)ccc(O)c2C(=O)c2c(NCCNCCO)ccc(NCCNCCO)c21
Actelion Java MolfileCreator 2.0

  0  0  0  0  0  0              0 V3000
M  V30 BEGIN CTAB
M  V30 COUNTS 60 62 0 0 0
M  V30 BEGIN ATOM
M  V30 1 O 2.134 1.1851 2.8461 0
M  V30 2 C 1.0702 0.6897 2.4891 0
M  V30 3 C -0.0659 0.5629 3.4314 0
M  V30 4 C 0.9013 0.1888 1.098 0
M  V30 5 C -1.024 -0.4252 3.1943 0
M  V30 6 C -0.1943 1.3927 4.5571 0
M  V30 7 C -0.0704 -0.7958 0.8588 0
M  V30 8 C 1.6977 0.6984 0.0464 0
M  V30 9 C -0.8605 -1.2999 2.0118 0
M  V30 10 C -2.1016 -0.5735 4.0824 0
M  V30 11 O 0.6934 2.4043 4.7885 0
M  V30 12 C -1.2587 1.2291 5.445 0
M  V30 13 C -0.2838 -1.3182 -0.4381 0
M  V30 14 N 2.6677 1.6556 0.2811 0
M  V30 15 C 1.4591 0.1954 -1.2346 0
M  V30 16 O -1.3482 -2.4252 1.9796 0
M  V30 17 O -3.0834 -1.4923 3.8444 0
M  V30 18 C -2.2142 0.2444 5.207 0
M  V30 19 N -1.2614 -2.2705 -0.6734 0
M  V30 20 C 0.4879 -0.7844 -1.4721 0
M  V30 21 C 3.3196 2.5041 -0.6993 0
M  V30 22 C -1.5287 -2.9584 -1.9267 0
M  V30 23 C 2.418 3.6743 -1.1506 0
M  V30 24 C -0.5261 -4.1075 -2.1566 0
M  V30 25 N 1.9664 4.5128 -0.0283 0
M  V30 26 N -0.6962 -4.8277 -3.4263 0
M  V30 27 C 1.2542 5.6987 -0.5028 0
M  V30 28 C -1.9274 -5.6319 -3.4598 0
M  V30 29 C 0.7002 6.5156 0.6681 0
M  V30 30 C -1.9994 -6.5163 -4.7152 0
M  V30 31 O 0.0738 7.6967 0.1762 0
M  V30 32 O -2.2153 -5.728 -5.8804 0
M  V30 33 H 0.5745 2.7621 5.6822 0
M  V30 34 H -1.3689 1.8736 6.3129 0
M  V30 35 H 2.7846 1.9266 1.2638 0
M  V30 36 H 2.033 0.5475 -2.0863 0
M  V30 37 H -3.6753 -1.5646 4.6096 0
M  V30 38 H -3.0492 0.141 5.8947 0
M  V30 39 H -1.6718 -2.687 0.1709 0
M  V30 40 H 0.3589 -1.1243 -2.4962 0
M  V30 41 H 3.6647 1.929 -1.565 0
M  V30 42 H 4.2234 2.919 -0.2363 0
M  V30 43 H -1.5387 -2.2607 -2.7715 0
M  V30 44 H -2.542 -3.3693 -1.8585 0
M  V30 45 H 1.5427 3.2761 -1.6766 0
M  V30 46 H 2.989 4.2815 -1.8634 0
M  V30 47 H -0.5591 -4.8106 -1.3147 0
M  V30 48 H 0.4886 -3.6926 -2.1573 0
M  V30 49 H 2.7642 4.7816 0.5451 0
M  V30 50 H 0.1079 -5.4365 -3.5704 0
M  V30 51 H 1.9183 6.3335 -1.1023 0
M  V30 52 H 0.4194 5.4133 -1.1548 0
M  V30 53 H -1.9669 -6.2829 -2.5791 0
M  V30 54 H -2.7998 -4.9702 -3.4505 0
M  V30 55 H -0.0411 5.9357 1.2281 0
M  V30 56 H 1.5035 6.8151 1.3494 0
M  V30 57 H -1.0783 -7.0952 -4.8419 0
M  V30 58 H -2.8371 -7.2152 -4.6244 0
M  V30 59 H -0.3074 8.1511 0.9468 0
M  V30 60 H -2.1346 -6.3194 -6.6463 0
M  V30 END ATOM
M  V30 BEGIN BOND
M  V30 1 2 1 2
M  V30 2 1 2 3
M  V30 3 1 2 4
M  V30 4 2 3 5
M  V30 5 1 3 6
M  V30 6 2 4 7
M  V30 7 1 4 8
M  V30 8 1 5 9
M  V30 9 1 5 10
M  V30 10 1 6 11
M  V30 11 2 6 12
M  V30 12 1 7 13
M  V30 13 1 8 14
M  V30 14 2 8 15
M  V30 15 2 9 16
M  V30 16 1 10 17
M  V30 17 2 10 18
M  V30 18 1 13 19
M  V30 19 2 13 20
M  V30 20 1 14 21
M  V30 21 1 19 22
M  V30 22 1 21 23
M  V30 23 1 22 24
M  V30 24 1 23 25
M  V30 25 1 24 26
M  V30 26 1 25 27
M  V30 27 1 26 28
M  V30 28 1 27 29
M  V30 29 1 28 30
M  V30 30 1 29 31
M  V30 31 1 30 32
M  V30 32 1 7 9
M  V30 33 1 12 18
M  V30 34 1 15 20
M  V30 35 1 11 33
M  V30 36 1 12 34
M  V30 37 1 14 35
M  V30 38 1 15 36
M  V30 39 1 17 37
M  V30 40 1 18 38
M  V30 41 1 19 39
M  V30 42 1 20 40
M  V30 43 1 21 41
M  V30 44 1 21 42
M  V30 45 1 22 43
M  V30 46 1 22 44
M  V30 47 1 23 45
M  V30 48 1 23 46
M  V30 49 1 24 47
M  V30 50 1 24 48
M  V30 51 1 25 49
M  V30 52 1 26 50
M  V30 53 1 27 51
M  V30 54 1 27 52
M  V30 55 1 28 53
M  V30 56 1 28 54
M  V30 57 1 29 55
M  V30 58 1 29 56
M  V30 59 1 30 57
M  V30 60 1 30 58
M  V30 61 1 31 59
M  V30 62 1 32 60
M  V30 END BOND
M  V30 END CTAB
M  END
>  <level_0>
5948

>  <index>
5948

>  <NO.>
5949

>  <Name>
mitoxantrone

>  <SMILES>
O=C1c2c(O)ccc(O)c2C(=O)c2c(NCCNCCO)ccc(NCCNCCO)c21

>  <logBB>


>  <Class>
-1

>  <MW>
444.2

>  <nHBAcc>
10

>  <nHBDon>
8

>  <SLogP>
-0.14

>  <TopoPSA>
163.18

>  <MMFF94 Energy>
183.9

$$$$
O=P(O)(O)C(O)(Cc1cccnc1)P(=O)(O)O
Actelion Java MolfileCreator 2.0

  0  0  0  0  0  0              0 V3000
M  V30 BEGIN CTAB
M  V30 COUNTS 28 28 0 0 0
M  V30 BEGIN ATOM
M  V30 1 P 1.331 0.7485 -0.7485 0
M  V30 2 O 2.5344 0.1695 -0.0803 0
M  V30 3 O 1.6772 2.1029 -1.5396 0
M  V30 4 O 0.8849 -0.1491 -2.0035 0
M  V30 5 C -0.1608 1.0835 0.2257 0
M  V30 6 P -0.054 2.5281 1.349 0
M  V30 7 O -1.2318 1.4165 -0.7081 0
M  V30 8 C -0.5926 -0.1222 1.0802 0
M  V30 9 O -1.0356 2.6328 2.4711 0
M  V30 10 O -0.133 3.8292 0.4088 0
M  V30 11 O 1.4492 2.63 1.887 0
M  V30 12 C -0.7045 -1.4415 0.3641 0
M  V30 13 C -1.7556 -1.7071 -0.5099 0
M  V30 14 C 0.2416 -2.4524 0.556 0
M  V30 15 N -1.9181 -2.8785 -1.1676 0
M  V30 16 C 0.1022 -3.6648 -0.1126 0
M  V30 17 C -0.9851 -3.8291 -0.9536 0
M  V30 18 H 2.5562 2.0794 -1.9617 0
M  V30 19 H 1.6243 -0.5829 -2.4653 0
M  V30 20 H -0.8905 2.1734 -1.2298 0
M  V30 21 H -1.5665 0.0841 1.544 0
M  V30 22 H 0.1161 -0.2312 1.9113 0
M  V30 23 H -0.3192 4.6463 0.9091 0
M  V30 24 H 1.5567 3.2603 2.6246 0
M  V30 25 H -2.5223 -0.9627 -0.7129 0
M  V30 26 H 1.0903 -2.3042 1.2202 0
M  V30 27 H 0.8231 -4.4631 0.0214 0
M  V30 28 H -1.1394 -4.7579 -1.4945 0
M  V30 END ATOM
M  V30 BEGIN BOND
M  V30 1 2 1 2
M  V30 2 1 1 3
M  V30 3 1 1 4
M  V30 4 1 1 5
M  V30 5 1 5 6
M  V30 6 1 5 7
M  V30 7 1 5 8
M  V30 8 2 6 9
M  V30 9 1 6 10
M  V30 10 1 6 11
M  V30 11 1 8 12
M  V30 12 2 12 13
M  V30 13 1 12 14
M  V30 14 1 13 15
M  V30 15 2 14 16
M  V30 16 2 15 17
M  V30 17 1 16 17
M  V30 18 1 3 18
M  V30 19 1 4 19
M  V30 20 1 7 20
M  V30 21 1 8 21
M  V30 22 1 8 22
M  V30 23 1 10 23
M  V30 24 1 11 24
M  V30 25 1 13 25
M  V30 26 1 14 26
M  V30 27 1 16 27
M  V30 28 1 17 28
M  V30 END BOND
M  V30 END CTAB
M  END
>  <level_0>
5950

>  <index>
5950

>  <NO.>
5951

>  <Name>
risedronate

>  <SMILES>
O=P(O)(O)C(O)(Cc1cccnc1)P(=O)(O)O

>  <logBB>


>  <Class>
-1

>  <MW>
283.0

>  <nHBAcc>
4

>  <nHBDon>
5

>  <SLogP>
-0.37

>  <TopoPSA>
148.18

>  <MMFF94 Energy>
-139.97

$$$$
O=P(O)(O)C(O)(Cn1ccnc1)P(=O)(O)O
Actelion Java MolfileCreator 2.0

  0  0  0  0  0  0              0 V3000
M  V30 BEGIN CTAB
M  V30 COUNTS 26 26 0 0 0
M  V30 BEGIN ATOM
M  V30 1 P -1.9969 -0.1663 -0.0831 0
M  V30 2 O -1.9778 -0.9109 -1.3721 0
M  V30 3 O -3.0981 1.0063 -0.1047 0
M  V30 4 O -2.6101 -1.0789 1.0899 0
M  V30 5 C -0.4955 0.5955 0.5844 0
M  V30 6 P 0.3317 1.7559 -0.531 0
M  V30 7 O -0.9445 1.4064 1.7273 0
M  V30 8 C 0.462 -0.4398 1.1645 0
M  V30 9 O 0.5765 1.3998 -1.9545 0
M  V30 10 O 1.6841 2.226 0.1992 0
M  V30 11 O -0.5154 3.1208 -0.4171 0
M  V30 12 N 1.2271 -1.1912 0.1982 0
M  V30 13 C 2.5454 -0.9876 -0.0996 0
M  V30 14 C 0.8147 -2.2925 -0.4924 0
M  V30 15 N 2.9807 -1.8646 -0.9741 0
M  V30 16 C 1.9083 -2.6767 -1.2334 0
M  V30 17 H -3.9025 0.7623 -0.6016 0
M  V30 18 H -3.3518 -1.6403 0.7956 0
M  V30 19 H -1.5038 2.1125 1.3346 0
M  V30 20 H -0.0742 -1.1635 1.7897 0
M  V30 21 H 1.1803 0.0491 1.8353 0
M  V30 22 H 2.2776 2.731 -0.3895 0
M  V30 23 H -0.269 3.774 -1.1003 0
M  V30 24 H 3.1379 -0.1969 0.3432 0
M  V30 25 H -0.1821 -2.7051 -0.4231 0
M  V30 26 H 1.9819 -3.5012 -1.9305 0
M  V30 END ATOM
M  V30 BEGIN BOND
M  V30 1 2 1 2
M  V30 2 1 1 3
M  V30 3 1 1 4
M  V30 4 1 1 5
M  V30 5 1 5 6
M  V30 6 1 5 7
M  V30 7 1 5 8
M  V30 8 2 6 9
M  V30 9 1 6 10
M  V30 10 1 6 11
M  V30 11 1 8 12
M  V30 12 1 12 13
M  V30 13 1 12 14
M  V30 14 2 13 15
M  V30 15 2 14 16
M  V30 16 1 15 16
M  V30 17 1 3 17
M  V30 18 1 4 18
M  V30 19 1 7 19
M  V30 20 1 8 20
M  V30 21 1 8 21
M  V30 22 1 10 22
M  V30 23 1 11 23
M  V30 24 1 13 24
M  V30 25 1 14 25
M  V30 26 1 16 26
M  V30 END BOND
M  V30 END CTAB
M  END
>  <level_0>
5951

>  <index>
5951

>  <NO.>
5952

>  <Name>
zoledronic acid

>  <SMILES>
O=P(O)(O)C(O)(Cn1ccnc1)P(=O)(O)O

>  <logBB>


>  <Class>
-1

>  <MW>
272.0

>  <nHBAcc>
4

>  <nHBDon>
5

>  <SLogP>
-1.12

>  <TopoPSA>
153.11

>  <MMFF94 Energy>
-186.69

$$$$
O=S(=O)(O)OC1C(O)COC(OC2COC(O)C(OS(=O)(=O)O)C2OS(=O)(=O)O)C1OS(=O)(=O)O
Actelion Java MolfileCreator 2.0

  0  0  0  0  0  0              0 V3000
M  V30 BEGIN CTAB
M  V30 COUNTS 53 54 0 0 0
M  V30 BEGIN ATOM
M  V30 1 S -1.9434 -3.9743 -0.5912 0
M  V30 2 O -1.9917 -5.4081 -0.4304 0
M  V30 3 O -2.8047 -3.0855 0.1532 0
M  V30 4 O -0.4102 -3.518 -0.368 0
M  V30 5 O -2.1456 -3.6697 -2.1571 0
M  V30 6 C -0.0952 -2.1671 -0.0373 0
M  V30 7 C -0.6437 -1.1193 -1.031 0
M  V30 8 C 1.4417 -2.0362 -0.0187 0
M  V30 9 O -0.1115 -1.3291 -2.3397 0
M  V30 10 O -0.2702 0.161 -0.5394 0
M  V30 11 O 2.0519 -3.0177 0.8253 0
M  V30 12 C 2.015 -2.1938 -1.4365 0
M  V30 13 C 1.318 -1.2303 -2.4019 0
M  V30 14 C -1.1775 1.2283 -0.8327 0
M  V30 15 S 1.8826 -2.8809 2.4354 0
M  V30 16 O 1.8362 -3.5364 -1.9121 0
M  V30 17 C -0.3954 2.5434 -0.6559 0
M  V30 18 C -2.3686 1.2043 0.1352 0
M  V30 19 O 2.9678 -3.5982 3.0578 0
M  V30 20 O 1.5702 -1.5045 2.7694 0
M  V30 21 O 0.5649 -3.7577 2.711 0
M  V30 22 O -1.1762 3.6063 -1.1951 0
M  V30 23 C -0.0383 2.7862 0.8288 0
M  V30 24 O -1.9405 1.3705 1.4901 0
M  V30 25 S -0.4153 4.8264 -1.9444 0
M  V30 26 O 0.9929 1.8547 1.172 0
M  V30 27 C -1.2869 2.6144 1.724 0
M  V30 28 O -1.3752 5.8766 -2.1898 0
M  V30 29 O 0.8511 5.0671 -1.2957 0
M  V30 30 O -0.1142 4.1915 -3.3918 0
M  V30 31 S 1.7588 1.9717 2.5939 0
M  V30 32 O -2.2028 3.6779 1.5206 0
M  V30 33 O 3.0742 1.4001 2.4192 0
M  V30 34 O 1.5597 3.2983 3.129 0
M  V30 35 O 0.9318 0.9424 3.5107 0
M  V30 36 H -1.3741 -4.0217 -2.6488 0
M  V30 37 H -0.4863 -1.9618 0.9654 0
M  V30 38 H -1.7287 -1.1968 -1.119 0
M  V30 39 H 1.7348 -1.0414 0.3395 0
M  V30 40 H 3.0948 -2.0097 -1.4339 0
M  V30 41 H 1.6134 -0.194 -2.2025 0
M  V30 42 H 1.6022 -1.4638 -3.4332 0
M  V30 43 H -1.5327 1.1433 -1.8671 0
M  V30 44 H 2.2357 -4.1227 -1.2421 0
M  V30 45 H 0.5375 2.4406 -1.228 0
M  V30 46 H -3.1068 1.9735 -0.1185 0
M  V30 47 H -2.8832 0.2403 0.0931 0
M  V30 48 H 0.8433 -4.6871 2.8539 0
M  V30 49 H 0.3443 3.807 0.9375 0
M  V30 50 H -1.0025 2.6272 2.7793 0
M  V30 51 H -0.7852 4.5585 -4.0054 0
M  V30 52 H -2.7548 3.7012 2.3218 0
M  V30 53 H 1.2101 0.0219 3.2717 0
M  V30 END ATOM
M  V30 BEGIN BOND
M  V30 1 2 1 2
M  V30 2 2 1 3
M  V30 3 1 1 4
M  V30 4 1 1 5
M  V30 5 1 4 6
M  V30 6 1 6 7
M  V30 7 1 6 8
M  V30 8 1 7 9
M  V30 9 1 7 10
M  V30 10 1 8 11
M  V30 11 1 8 12
M  V30 12 1 9 13
M  V30 13 1 10 14
M  V30 14 1 11 15
M  V30 15 1 12 16
M  V30 16 1 14 17
M  V30 17 1 14 18
M  V30 18 2 15 19
M  V30 19 2 15 20
M  V30 20 1 15 21
M  V30 21 1 17 22
M  V30 22 1 17 23
M  V30 23 1 18 24
M  V30 24 1 22 25
M  V30 25 1 23 26
M  V30 26 1 23 27
M  V30 27 2 25 28
M  V30 28 2 25 29
M  V30 29 1 25 30
M  V30 30 1 26 31
M  V30 31 1 27 32
M  V30 32 2 31 33
M  V30 33 2 31 34
M  V30 34 1 31 35
M  V30 35 1 12 13
M  V30 36 1 24 27
M  V30 37 1 5 36
M  V30 38 1 6 37
M  V30 39 1 7 38
M  V30 40 1 8 39
M  V30 41 1 12 40
M  V30 42 1 13 41
M  V30 43 1 13 42
M  V30 44 1 14 43
M  V30 45 1 16 44
M  V30 46 1 17 45
M  V30 47 1 18 46
M  V30 48 1 18 47
M  V30 49 1 21 48
M  V30 50 1 23 49
M  V30 51 1 27 50
M  V30 52 1 30 51
M  V30 53 1 32 52
M  V30 54 1 35 53
M  V30 END BOND
M  V30 END CTAB
M  END
>  <level_0>
5952

>  <index>
5952

>  <NO.>
5953

>  <Name>
pentosan polysulfate

>  <SMILES>
O=S(=O)(O)OC1C(O)COC(OC2COC(O)C(OS(=O)(=O)O)C2OS(=O)(=O)O)C1OS(=O)(=O)O

>  <logBB>


>  <Class>
-1

>  <MW>
601.92

>  <nHBAcc>
17

>  <nHBDon>
6

>  <SLogP>
-4.81

>  <TopoPSA>
322.55

>  <MMFF94 Energy>
-385.12

$$$$
O=S1(=O)CCN(CN2CCS(=O)(=O)NC2)CN1
Actelion Java MolfileCreator 2.0

  0  0  0  0  0  0              0 V3000
M  V30 BEGIN CTAB
M  V30 COUNTS 33 34 0 0 0
M  V30 BEGIN ATOM
M  V30 1 S 3.1333 -1.5657 -1.7306 0
M  V30 2 O 4.0646 -1.9767 -2.7565 0
M  V30 3 O 3.4922 -1.6297 -0.3306 0
M  V30 4 N 2.7027 0.0186 -2.0645 0
M  V30 5 C 1.5781 -2.3809 -1.9766 0
M  V30 6 C 1.5771 0.5046 -1.2773 0
M  V30 7 C 0.5057 -1.6654 -1.1718 0
M  V30 8 N 0.3737 -0.2614 -1.5695 0
M  V30 9 C -0.8352 0.389 -1.0665 0
M  V30 10 N -0.787 0.6078 0.381 0
M  V30 11 C -1.1698 1.9829 0.6979 0
M  V30 12 C -1.6492 -0.3494 1.1004 0
M  V30 13 N -0.9544 2.2745 2.1042 0
M  V30 14 C -1.4714 -0.2652 2.6081 0
M  V30 15 S -1.9013 1.3676 3.1454 0
M  V30 16 O -1.4025 1.5941 4.4817 0
M  V30 17 O -3.2822 1.6343 2.8052 0
M  V30 18 H 3.5233 0.6212 -2.0217 0
M  V30 19 H 1.3572 -2.3725 -3.0488 0
M  V30 20 H 1.693 -3.418 -1.6484 0
M  V30 21 H 1.8378 0.5177 -0.2117 0
M  V30 22 H 1.4305 1.5513 -1.5729 0
M  V30 23 H 0.7248 -1.7524 -0.1002 0
M  V30 24 H -0.4402 -2.1903 -1.3529 0
M  V30 25 H -1.7255 -0.1799 -1.368 0
M  V30 26 H -0.9369 1.3377 -1.6119 0
M  V30 27 H -2.2004 2.2175 0.4028 0
M  V30 28 H -0.5235 2.6773 0.1457 0
M  V30 29 H -2.7027 -0.1933 0.8317 0
M  V30 30 H -1.4025 -1.3747 0.8051 0
M  V30 31 H -1.0029 3.2633 2.3475 0
M  V30 32 H -0.4383 -0.4636 2.9102 0
M  V30 33 H -2.1325 -0.9673 3.1242 0
M  V30 END ATOM
M  V30 BEGIN BOND
M  V30 1 2 1 2
M  V30 2 2 1 3
M  V30 3 1 1 4
M  V30 4 1 1 5
M  V30 5 1 4 6
M  V30 6 1 5 7
M  V30 7 1 6 8
M  V30 8 1 8 9
M  V30 9 1 9 10
M  V30 10 1 10 11
M  V30 11 1 10 12
M  V30 12 1 11 13
M  V30 13 1 12 14
M  V30 14 1 13 15
M  V30 15 2 15 16
M  V30 16 2 15 17
M  V30 17 1 7 8
M  V30 18 1 14 15
M  V30 19 1 4 18
M  V30 20 1 5 19
M  V30 21 1 5 20
M  V30 22 1 6 21
M  V30 23 1 6 22
M  V30 24 1 7 23
M  V30 25 1 7 24
M  V30 26 1 9 25
M  V30 27 1 9 26
M  V30 28 1 11 27
M  V30 29 1 11 28
M  V30 30 1 12 29
M  V30 31 1 12 30
M  V30 32 1 13 31
M  V30 33 1 14 32
M  V30 34 1 14 33
M  V30 END BOND
M  V30 END CTAB
M  END
>  <level_0>
5953

>  <index>
5953

>  <NO.>
5954

>  <Name>
taurolidine

>  <SMILES>
O=S1(=O)CCN(CN2CCS(=O)(=O)NC2)CN1

>  <logBB>


>  <Class>
-1

>  <MW>
284.06

>  <nHBAcc>
6

>  <nHBDon>
2

>  <SLogP>
-2.67

>  <TopoPSA>
98.82

>  <MMFF94 Energy>
-325.6

$$$$
O=c1[nH]c(=O)n(C2CC(O)C(CO)O2)cc1C(F)(F)F
Actelion Java MolfileCreator 2.0

  0  0  0  0  0  0              0 V3000
M  V30 BEGIN CTAB
M  V30 COUNTS 31 32 0 0 0
M  V30 BEGIN ATOM
M  V30 1 F 3.557 -2.9095 1.0499 0
M  V30 2 C 2.8854 -1.9677 1.7588 0
M  V30 3 F 3.5191 -0.7879 1.5021 0
M  V30 4 F 3.0924 -2.2186 3.076 0
M  V30 5 C 1.4499 -1.9014 1.4083 0
M  V30 6 C 0.6745 -3.1256 1.6372 0
M  V30 7 C 0.8171 -0.8346 0.9036 0
M  V30 8 O 1.1695 -4.1429 2.1052 0
M  V30 9 N -0.6472 -3.068 1.2907 0
M  V30 10 N -0.5301 -0.8454 0.5925 0
M  V30 11 C -1.3017 -1.9881 0.7588 0
M  V30 12 C -1.1912 0.3182 0.0051 0
M  V30 13 O -2.4893 -2.0688 0.4541 0
M  V30 14 O -0.5265 1.5347 0.3993 0
M  V30 15 C -1.242 0.2795 -1.5215 0
M  V30 16 C -0.1534 2.2613 -0.7951 0
M  V30 17 C -0.1643 1.2522 -1.9364 0
M  V30 18 C -1.1678 3.3921 -0.9896 0
M  V30 19 O 1.0768 0.5479 -2.0059 0
M  V30 20 O -1.0801 4.306 0.1018 0
M  V30 21 H 1.358 0.0894 0.7139 0
M  V30 22 H -1.1945 -3.9039 1.4286 0
M  V30 23 H -2.2118 0.3671 0.4035 0
M  V30 24 H -1.1114 -0.7264 -1.9323 0
M  V30 25 H -2.2168 0.6578 -1.8524 0
M  V30 26 H 0.8438 2.6769 -0.6146 0
M  V30 27 H -0.3484 1.6977 -2.9184 0
M  V30 28 H -2.1959 3.0178 -1.0163 0
M  V30 29 H -0.9683 3.9461 -1.9114 0
M  V30 30 H 1.7604 1.174 -2.3054 0
M  V30 31 H -1.0788 3.7633 0.9143 0
M  V30 END ATOM
M  V30 BEGIN BOND
M  V30 1 1 1 2
M  V30 2 1 2 3
M  V30 3 1 2 4
M  V30 4 1 2 5
M  V30 5 1 5 6
M  V30 6 2 5 7
M  V30 7 2 6 8
M  V30 8 1 6 9
M  V30 9 1 7 10
M  V30 10 1 9 11
M  V30 11 1 10 12
M  V30 12 2 11 13
M  V30 13 1 12 14
M  V30 14 1 12 15
M  V30 15 1 14 16
M  V30 16 1 15 17
M  V30 17 1 16 18
M  V30 18 1 17 19
M  V30 19 1 18 20
M  V30 20 1 10 11
M  V30 21 1 16 17
M  V30 22 1 7 21
M  V30 23 1 9 22
M  V30 24 1 12 23
M  V30 25 1 15 24
M  V30 26 1 15 25
M  V30 27 1 16 26
M  V30 28 1 17 27
M  V30 29 1 18 28
M  V30 30 1 18 29
M  V30 31 1 19 30
M  V30 32 1 20 31
M  V30 END BOND
M  V30 END CTAB
M  END
>  <level_0>
5955

>  <index>
5955

>  <NO.>
5956

>  <Name>
thymidine,.alpha.,.alpha.-trifluoro-

>  <SMILES>
O=c1[nH]c(=O)n(C2CC(O)C(CO)O2)cc1C(F)(F)F

>  <logBB>


>  <Class>
-1

>  <MW>
296.06

>  <nHBAcc>
5

>  <nHBDon>
3

>  <SLogP>
-0.8

>  <TopoPSA>
104.55

>  <MMFF94 Energy>
-83.82

$$$$
O=c1[nH]c(=O)n(C2CC(O)C(CO)O2)cc1I
Actelion Java MolfileCreator 2.0

  0  0  0  0  0  0              0 V3000
M  V30 BEGIN CTAB
M  V30 COUNTS 28 29 0 0 0
M  V30 BEGIN ATOM
M  V30 1 I -4.5768 2.6951 1.7961 0
M  V30 2 C -3.2977 1.2088 1.2204 0
M  V30 3 C -3.74 -0.2109 1.2626 0
M  V30 4 C -2.0516 1.4601 0.7983 0
M  V30 5 O -4.8558 -0.5615 1.6329 0
M  V30 6 N -2.8109 -1.1314 0.8603 0
M  V30 7 N -1.1714 0.4652 0.4034 0
M  V30 8 C -1.5353 -0.8744 0.4297 0
M  V30 9 C 0.167 0.8447 -0.0438 0
M  V30 10 O -0.8063 -1.8112 0.1087 0
M  V30 11 O 0.4063 0.3184 -1.3561 0
M  V30 12 C 1.3058 0.379 0.8488 0
M  V30 13 C 1.8168 0.0099 -1.4599 0
M  V30 14 C 2.4615 0.3976 -0.1238 0
M  V30 15 C 1.9785 -1.4714 -1.8174 0
M  V30 16 O 2.9481 1.7454 -0.1802 0
M  V30 17 O 1.684 -2.3302 -0.7227 0
M  V30 18 H -1.6806 2.4809 0.7469 0
M  V30 19 H -3.0926 -2.0993 0.8821 0
M  V30 20 H 0.2143 1.9371 -0.1468 0
M  V30 21 H 1.4354 1.0435 1.7093 0
M  V30 22 H 1.1446 -0.6341 1.2276 0
M  V30 23 H 2.2092 0.6165 -2.284 0
M  V30 24 H 3.2942 -0.2438 0.1787 0
M  V30 25 H 1.3224 -1.7475 -2.6494 0
M  V30 26 H 3.0137 -1.6694 -2.1124 0
M  V30 27 H 3.7492 1.7429 -0.7343 0
M  V30 28 H 0.7208 -2.2356 -0.5362 0
M  V30 END ATOM
M  V30 BEGIN BOND
M  V30 1 1 1 2
M  V30 2 1 2 3
M  V30 3 2 2 4
M  V30 4 2 3 5
M  V30 5 1 3 6
M  V30 6 1 4 7
M  V30 7 1 6 8
M  V30 8 1 7 9
M  V30 9 2 8 10
M  V30 10 1 9 11
M  V30 11 1 9 12
M  V30 12 1 11 13
M  V30 13 1 12 14
M  V30 14 1 13 15
M  V30 15 1 14 16
M  V30 16 1 15 17
M  V30 17 1 7 8
M  V30 18 1 13 14
M  V30 19 1 4 18
M  V30 20 1 6 19
M  V30 21 1 9 20
M  V30 22 1 12 21
M  V30 23 1 12 22
M  V30 24 1 13 23
M  V30 25 1 14 24
M  V30 26 1 15 25
M  V30 27 1 15 26
M  V30 28 1 16 27
M  V30 29 1 17 28
M  V30 END BOND
M  V30 END CTAB
M  END
>  <level_0>
5957

>  <index>
5957

>  <NO.>
5958

>  <Name>
ophthalmadine

>  <SMILES>
O=c1[nH]c(=O)n(C2CC(O)C(CO)O2)cc1I

>  <logBB>


>  <Class>
-1

>  <MW>
353.97

>  <nHBAcc>
5

>  <nHBDon>
3

>  <SLogP>
-1.22

>  <TopoPSA>
104.55

>  <MMFF94 Energy>
-39.769

$$$$
OC1COC(O)C(O)C1O
Actelion Java MolfileCreator 2.0

  0  0  0  0  0  0              0 V3000
M  V30 BEGIN CTAB
M  V30 COUNTS 20 20 0 0 0
M  V30 BEGIN ATOM
M  V30 1 O -1.4977 -0.7092 -0.2363 0
M  V30 2 C -0.7961 -0.4037 0.9614 0
M  V30 3 C -0.5937 -1.1177 -1.2755 0
M  V30 4 O -1.7495 -0.0341 1.951 0
M  V30 5 C 0.1604 0.7866 0.764 0
M  V30 6 C 0.3403 0.0417 -1.6402 0
M  V30 7 O 0.9257 1.021 1.9591 0
M  V30 8 C 1.1128 0.5138 -0.4031 0
M  V30 9 O -0.4343 1.1263 -2.1687 0
M  V30 10 O 2.0628 -0.4866 -0.0065 0
M  V30 11 H -0.2644 -1.2873 1.3353 0
M  V30 12 H -1.2106 -1.3874 -2.139 0
M  V30 13 H -0.042 -2.0092 -0.9567 0
M  V30 14 H -2.3198 -0.8169 2.0409 0
M  V30 15 H -0.4185 1.696 0.5612 0
M  V30 16 H 1.0358 -0.2851 -2.4203 0
M  V30 17 H 0.2581 1.1155 2.6685 0
M  V30 18 H 1.6813 1.4235 -0.6283 0
M  V30 19 H -1.3187 1.0841 -1.7556 0
M  V30 20 H 2.4208 -0.1617 0.8464 0
M  V30 END ATOM
M  V30 BEGIN BOND
M  V30 1 1 1 2
M  V30 2 1 1 3
M  V30 3 1 2 4
M  V30 4 1 2 5
M  V30 5 1 3 6
M  V30 6 1 5 7
M  V30 7 1 5 8
M  V30 8 1 6 9
M  V30 9 1 8 10
M  V30 10 1 6 8
M  V30 11 1 2 11
M  V30 12 1 3 12
M  V30 13 1 3 13
M  V30 14 1 4 14
M  V30 15 1 5 15
M  V30 16 1 6 16
M  V30 17 1 7 17
M  V30 18 1 8 18
M  V30 19 1 9 19
M  V30 20 1 10 20
M  V30 END BOND
M  V30 END CTAB
M  END
>  <level_0>
5958

>  <index>
5958

>  <NO.>
5959

>  <Name>
pentopyranose

>  <SMILES>
OC1COC(O)C(O)C1O

>  <logBB>


>  <Class>
-1

>  <MW>
150.05

>  <nHBAcc>
5

>  <nHBDon>
4

>  <SLogP>
-2.58

>  <TopoPSA>
90.15

>  <MMFF94 Energy>
65.797

$$$$
OC1COC2C(O)COC12
Actelion Java MolfileCreator 2.0

  0  0  0  0  0  0              0 V3000
M  V30 BEGIN CTAB
M  V30 COUNTS 20 21 0 0 0
M  V30 BEGIN ATOM
M  V30 1 O 0.721 -0.8011 1.2018 0
M  V30 2 C 0.8247 0.4975 0.5724 0
M  V30 3 C -0.6686 -1.1021 1.4099 0
M  V30 4 C -0.5881 0.9319 0.2289 0
M  V30 5 C 1.4671 0.4307 -0.8015 0
M  V30 6 C -1.429 0.2027 1.2536 0
M  V30 7 O -0.8837 0.4343 -1.1053 0
M  V30 8 O 2.6543 -0.3385 -0.8455 0
M  V30 9 C 0.3293 -0.1298 -1.6381 0
M  V30 10 O -2.7679 0.0162 0.8212 0
M  V30 11 H 1.3439 1.1621 1.2689 0
M  V30 12 H -0.8013 -1.5379 2.4048 0
M  V30 13 H -0.9797 -1.8528 0.6749 0
M  V30 14 H -0.7419 2.0147 0.2169 0
M  V30 15 H 1.7004 1.4486 -1.1375 0
M  V30 16 H -1.4289 0.7487 2.2036 0
M  V30 17 H 2.9008 -0.465 -1.7769 0
M  V30 18 H 0.2704 -1.2221 -1.577 0
M  V30 19 H 0.4232 0.1393 -2.6944 0
M  V30 20 H -2.7198 -0.1016 -0.1493 0
M  V30 END ATOM
M  V30 BEGIN BOND
M  V30 1 1 1 2
M  V30 2 1 1 3
M  V30 3 1 2 4
M  V30 4 1 2 5
M  V30 5 1 3 6
M  V30 6 1 4 7
M  V30 7 1 5 8
M  V30 8 1 5 9
M  V30 9 1 6 10
M  V30 10 1 4 6
M  V30 11 1 7 9
M  V30 12 1 2 11
M  V30 13 1 3 12
M  V30 14 1 3 13
M  V30 15 1 4 14
M  V30 16 1 5 15
M  V30 17 1 6 16
M  V30 18 1 8 17
M  V30 19 1 9 18
M  V30 20 1 9 19
M  V30 21 1 10 20
M  V30 END BOND
M  V30 END CTAB
M  END
>  <level_0>
5959

>  <index>
5959

>  <NO.>
5960

>  <Name>
isosorbide

>  <SMILES>
OC1COC2C(O)COC12

>  <logBB>


>  <Class>
-1

>  <MW>
146.06

>  <nHBAcc>
4

>  <nHBDon>
2

>  <SLogP>
-1.49

>  <TopoPSA>
58.92

>  <MMFF94 Energy>
98.603

$$$$
OCC1OC(OC2C(CO)OC(O)(CO)C2O)C(O)C(O)C1O
Actelion Java MolfileCreator 2.0

  0  0  0  0  0  0              0 V3000
M  V30 BEGIN CTAB
M  V30 COUNTS 45 46 0 0 0
M  V30 BEGIN ATOM
M  V30 1 O -1.3538 1.3538 -0.9555 0
M  V30 2 C -1.4428 0.0713 -0.3251 0
M  V30 3 C -0.9754 2.4102 -0.0591 0
M  V30 4 O -0.131 -0.3067 0.085 0
M  V30 5 C -2.4268 0.0716 0.8628 0
M  V30 6 C -2.0283 2.5624 1.0461 0
M  V30 7 C -0.8089 3.6983 -0.8779 0
M  V30 8 C 0.1492 -1.7149 -0.0454 0
M  V30 9 O -3.7831 0.1825 0.3977 0
M  V30 10 C -2.1337 1.2354 1.8089 0
M  V30 11 O -1.6857 3.5796 1.9956 0
M  V30 12 O 0.2869 3.5977 -1.7905 0
M  V30 13 C 1.4508 -1.9724 0.7055 0
M  V30 14 C 0.5177 -2.0574 -1.4896 0
M  V30 15 O -3.1961 1.3297 2.7762 0
M  V30 16 O 1.5402 -1.1707 1.8871 0
M  V30 17 C 2.5408 -1.6937 -0.3611 0
M  V30 18 O 1.8928 -1.6498 -1.6461 0
M  V30 19 C 0.3782 -3.5402 -1.8569 0
M  V30 20 O 3.4425 -2.8 -0.4112 0
M  V30 21 C 3.3036 -0.3624 -0.1707 0
M  V30 22 O 1.0837 -4.3975 -0.9695 0
M  V30 23 O 2.4377 0.7765 -0.1527 0
M  V30 24 H -1.8187 -0.6077 -1.0984 0
M  V30 25 H 0.0026 2.1745 0.3794 0
M  V30 26 H -2.3659 -0.8714 1.4171 0
M  V30 27 H -3.0095 2.8187 0.6265 0
M  V30 28 H -0.6159 4.5615 -0.2343 0
M  V30 29 H -1.7057 3.8984 -1.473 0
M  V30 30 H -0.6875 -2.2932 0.3592 0
M  V30 31 H -4.3023 0.3992 1.2008 0
M  V30 32 H -1.2087 1.0471 2.3679 0
M  V30 33 H -1.9665 4.4367 1.6263 0
M  V30 34 H 1.0614 3.2806 -1.2932 0
M  V30 35 H 1.5031 -3.0146 1.0363 0
M  V30 36 H -0.0596 -1.4695 -2.2098 0
M  V30 37 H -2.9877 2.1309 3.2984 0
M  V30 38 H 1.373 -0.2505 1.5929 0
M  V30 39 H 0.7651 -3.7207 -2.8652 0
M  V30 40 H -0.6756 -3.8341 -1.8343 0
M  V30 41 H 4.2442 -2.4875 -0.8641 0
M  V30 42 H 4.0121 -0.2148 -0.9935 0
M  V30 43 H 3.8856 -0.374 0.7566 0
M  V30 44 H 2.0355 -4.1707 -1.0398 0
M  V30 45 H 1.7885 0.6359 -0.8723 0
M  V30 END ATOM
M  V30 BEGIN BOND
M  V30 1 1 1 2
M  V30 2 1 1 3
M  V30 3 1 2 4
M  V30 4 1 2 5
M  V30 5 1 3 6
M  V30 6 1 3 7
M  V30 7 1 4 8
M  V30 8 1 5 9
M  V30 9 1 5 10
M  V30 10 1 6 11
M  V30 11 1 7 12
M  V30 12 1 8 13
M  V30 13 1 8 14
M  V30 14 1 10 15
M  V30 15 1 13 16
M  V30 16 1 13 17
M  V30 17 1 14 18
M  V30 18 1 14 19
M  V30 19 1 17 20
M  V30 20 1 17 21
M  V30 21 1 19 22
M  V30 22 1 21 23
M  V30 23 1 6 10
M  V30 24 1 17 18
M  V30 25 1 2 24
M  V30 26 1 3 25
M  V30 27 1 5 26
M  V30 28 1 6 27
M  V30 29 1 7 28
M  V30 30 1 7 29
M  V30 31 1 8 30
M  V30 32 1 9 31
M  V30 33 1 10 32
M  V30 34 1 11 33
M  V30 35 1 12 34
M  V30 36 1 13 35
M  V30 37 1 14 36
M  V30 38 1 15 37
M  V30 39 1 16 38
M  V30 40 1 19 39
M  V30 41 1 19 40
M  V30 42 1 20 41
M  V30 43 1 21 42
M  V30 44 1 21 43
M  V30 45 1 22 44
M  V30 46 1 23 45
M  V30 END BOND
M  V30 END CTAB
M  END
>  <level_0>
5961

>  <index>
5961

>  <NO.>
5962

>  <Name>
lactulose

>  <SMILES>
OCC1OC(OC2C(CO)OC(O)(CO)C2O)C(O)C(O)C1O

>  <logBB>


>  <Class>
-1

>  <MW>
342.12

>  <nHBAcc>
11

>  <nHBDon>
8

>  <SLogP>
-5.4

>  <TopoPSA>
189.53

>  <MMFF94 Energy>
198.84

$$$$
Oc1c(Cl)cc(Cl)cc1Cc1c(O)c(Cl)cc(Cl)c1Cl
Actelion Java MolfileCreator 2.0

  0  0  0  0  0  0              0 V3000
M  V30 BEGIN CTAB
M  V30 COUNTS 27 28 0 0 0
M  V30 BEGIN ATOM
M  V30 1 Cl 0.8625 -3.1077 1.294 0
M  V30 2 C -0.6269 -2.3327 0.8468 0
M  V30 3 C -1.7121 -3.1154 0.4038 0
M  V30 4 C -0.7464 -0.9269 0.9137 0
M  V30 5 Cl -1.6316 -4.8419 0.2964 0
M  V30 6 C -2.9151 -2.5169 0.0238 0
M  V30 7 C -1.9693 -0.3495 0.5224 0
M  V30 8 C 0.3876 -0.0239 1.3743 0
M  V30 9 C -3.0402 -1.1354 0.0833 0
M  V30 10 O -2.0958 1.0148 0.5816 0
M  V30 11 C 1.1195 0.7099 0.2656 0
M  V30 12 Cl -4.5274 -0.4015 -0.3901 0
M  V30 13 C 1.4869 2.0557 0.4106 0
M  V30 14 C 1.5051 0.0483 -0.914 0
M  V30 15 O 1.1702 2.7027 1.5772 0
M  V30 16 C 2.1753 2.7301 -0.6078 0
M  V30 17 C 2.1918 0.7275 -1.9242 0
M  V30 18 Cl 2.6059 4.3908 -0.4166 0
M  V30 19 C 2.5257 2.0699 -1.7808 0
M  V30 20 Cl 2.6317 -0.1091 -3.3625 0
M  V30 21 H -3.7474 -3.1271 -0.3175 0
M  V30 22 H 1.1317 -0.5698 1.9637 0
M  V30 23 H -0.0454 0.6863 2.0907 0
M  V30 24 H -2.9924 1.2508 0.2769 0
M  V30 25 H 1.2736 -1.0044 -1.0558 0
M  V30 26 H 1.4731 3.6263 1.4927 0
M  V30 27 H 3.0597 2.5912 -2.5696 0
M  V30 END ATOM
M  V30 BEGIN BOND
M  V30 1 1 1 2
M  V30 2 2 2 3
M  V30 3 1 2 4
M  V30 4 1 3 5
M  V30 5 1 3 6
M  V30 6 2 4 7
M  V30 7 1 4 8
M  V30 8 2 6 9
M  V30 9 1 7 10
M  V30 10 1 8 11
M  V30 11 1 9 12
M  V30 12 2 11 13
M  V30 13 1 11 14
M  V30 14 1 13 15
M  V30 15 1 13 16
M  V30 16 2 14 17
M  V30 17 1 16 18
M  V30 18 2 16 19
M  V30 19 1 17 20
M  V30 20 1 7 9
M  V30 21 1 17 19
M  V30 22 1 6 21
M  V30 23 1 8 22
M  V30 24 1 8 23
M  V30 25 1 10 24
M  V30 26 1 14 25
M  V30 27 1 15 26
M  V30 28 1 19 27
M  V30 END BOND
M  V30 END CTAB
M  END
>  <level_0>
5963

>  <index>
5963

>  <NO.>
5964

>  <Name>
hexachlorophene

>  <SMILES>
Oc1c(Cl)cc(Cl)cc1Cc1c(O)c(Cl)cc(Cl)c1Cl

>  <logBB>


>  <Class>
-1

>  <MW>
369.89

>  <nHBAcc>
2

>  <nHBDon>
2

>  <SLogP>
5.96

>  <TopoPSA>
40.46

>  <MMFF94 Energy>
37.753

$$$$
Oc1cccc(-c2c3nc(c(-c4cccc(O)c4)c4ccc([nH]4)c(-c4cccc(O)c4)c4nc(c(-c5cccc(O)c5)c5ccc2[nH]5)CC4)C=C3)c1
Actelion Java MolfileCreator 2.0

  0  0  0  0  0  0              0 V3000
M  V30 BEGIN CTAB
M  V30 COUNTS 52 60 0 0 0
M  V30 BEGIN ATOM
M  V30 1 O -6.9751 -1.939 -4.4991 0
M  V30 2 C -6.4501 -1.7332 -3.3503 0
M  V30 3 C -5.1104 -1.3057 -3.1435 0
M  V30 4 C -7.1696 -1.9087 -2.1587 0
M  V30 5 C -4.5205 -1.0713 -1.8783 0
M  V30 6 C -6.636 -1.6813 -0.8876 0
M  V30 7 C -3.1296 -0.5596 -1.6834 0
M  V30 8 C -5.3205 -1.2559 -0.755 0
M  V30 9 C -2.0691 -1.0402 -2.3909 0
M  V30 10 C -2.7825 0.5922 -0.558 0
M  V30 11 N -0.7312 -0.6697 -2.1899 0
M  V30 12 C -2.0529 -2.0759 -3.3619 0
M  V30 13 N -3.0431 0.5941 0.7767 0
M  V30 14 C -2.0438 1.7126 -0.8923 0
M  V30 15 C 0.0378 -1.4702 -2.8796 0
M  V30 16 C -0.9018 -2.2784 -3.6084 0
M  V30 17 C -2.0874 1.4085 1.2888 0
M  V30 18 C -1.5702 2.2171 0.2941 0
M  V30 19 C 1.5348 -1.5502 -2.8245 0
M  V30 20 C -1.5259 1.5112 2.807 0
M  V30 21 C 2.369 -1.9547 -3.9859 0
M  V30 22 C 2.1042 -1.4183 -1.3111 0
M  V30 23 C -2.3883 1.8123 3.9823 0
M  V30 24 C -0.0225 1.5252 2.8759 0
M  V30 25 C 1.8603 -2.3231 -5.2494 0
M  V30 26 C 3.7501 -2.0025 -3.8159 0
M  V30 27 N 3.0632 -0.5965 -0.8186 0
M  V30 28 C 1.5668 -2.1853 -0.2944 0
M  V30 29 C -1.9063 2.194 5.2528 0
M  V30 30 C -3.7696 1.7494 3.8195 0
M  V30 31 N 0.7995 0.7852 2.1789 0
M  V30 32 C 0.8103 2.3916 3.6578 0
M  V30 33 C 2.6525 -2.7507 -6.3494 0
M  V30 34 C 4.5828 -2.3975 -4.854 0
M  V30 35 C 2.7899 -0.5451 0.5132 0
M  V30 36 C 2.028 -1.64 0.8782 0
M  V30 37 C -2.7234 2.5325 6.3653 0
M  V30 38 C -4.6259 2.0505 4.8703 0
M  V30 39 C 2.1514 1.136 2.3454 0
M  V30 40 C 2.2574 2.1687 3.3162 0
M  V30 41 O 2.1805 -3.1023 -7.4845 0
M  V30 42 C 4.0294 -2.7621 -6.0819 0
M  V30 43 C 3.1802 0.6181 1.6119 0
M  V30 44 O -2.2742 2.9013 7.5043 0
M  V30 45 C -4.098 2.4345 6.1039 0
M  V30 46 C 4.5916 1.0957 1.766 0
M  V30 47 C 5.2229 1.3232 3.0128 0
M  V30 48 C 5.3624 1.2635 0.62 0
M  V30 49 C 6.5736 1.7323 3.1807 0
M  V30 50 C 6.6887 1.6654 0.7141 0
M  V30 51 O 7.1317 1.939 4.3137 0
M  V30 52 C 7.2619 1.8902 1.9687 0
M  V30 END ATOM
M  V30 BEGIN BOND
M  V30 1 1 1 2
M  V30 2 2 2 3
M  V30 3 1 2 4
M  V30 4 1 3 5
M  V30 5 2 4 6
M  V30 6 1 5 7
M  V30 7 2 5 8
M  V30 8 2 7 9
M  V30 9 1 7 10
M  V30 10 1 9 11
M  V30 11 1 9 12
M  V30 12 1 10 13
M  V30 13 2 10 14
M  V30 14 2 11 15
M  V30 15 2 12 16
M  V30 16 1 13 17
M  V30 17 1 14 18
M  V30 18 1 15 19
M  V30 19 1 17 20
M  V30 20 1 19 21
M  V30 21 1 19 22
M  V30 22 1 20 23
M  V30 23 1 20 24
M  V30 24 2 21 25
M  V30 25 1 21 26
M  V30 26 1 22 27
M  V30 27 2 22 28
M  V30 28 2 23 29
M  V30 29 1 23 30
M  V30 30 2 24 31
M  V30 31 1 24 32
M  V30 32 1 25 33
M  V30 33 2 26 34
M  V30 34 1 27 35
M  V30 35 1 28 36
M  V30 36 1 29 37
M  V30 37 2 30 38
M  V30 38 1 31 39
M  V30 39 1 32 40
M  V30 40 1 33 41
M  V30 41 2 33 42
M  V30 42 1 35 43
M  V30 43 1 37 44
M  V30 44 2 37 45
M  V30 45 1 43 46
M  V30 46 2 46 47
M  V30 47 1 46 48
M  V30 48 1 47 49
M  V30 49 2 48 50
M  V30 50 1 49 51
M  V30 51 2 49 52
M  V30 52 1 6 8
M  V30 53 1 15 16
M  V30 54 2 17 18
M  V30 55 1 34 42
M  V30 56 2 35 36
M  V30 57 1 38 45
M  V30 58 1 39 40
M  V30 59 2 39 43
M  V30 60 1 50 52
M  V30 END BOND
M  V30 END CTAB
M  END
>  <level_0>
5964

>  <index>
5964

>  <NO.>
5965

>  <Name>
temoporfin

>  <SMILES>
Oc1cccc(-c2c3nc(c(-c4cccc(O)c4)c4ccc([nH]4)c(-c4cccc(O)c4)c4nc(c(-c5cccc(O)c5)c5ccc2[nH]5)CC4)C=C3)c1

>  <logBB>


>  <Class>
-1

>  <MW>
680.24

>  <nHBAcc>
6

>  <nHBDon>
6

>  <SLogP>
9.76

>  <TopoPSA>
138.28

>  <MMFF94 Energy>
886.85

$$$$
c1ccc(-c2ccc(C(c3ccccc3)n3ccnc3)cc2)cc1
Actelion Java MolfileCreator 2.0

  0  0  0  0  0  0              0 V3000
M  V30 BEGIN CTAB
M  V30 COUNTS 42 45 0 0 0
M  V30 BEGIN ATOM
M  V30 1 N -4.6458 0.0 2.3208 0
M  V30 2 C -3.8159 0.9405 1.9309 0
M  V30 3 C -4.1563 -1.1595 1.7811 0
M  V30 4 N -2.8012 0.4332 1.1608 0
M  V30 5 C -3.0147 -0.9167 1.0542 0
M  V30 6 C -1.7081 1.2393 0.5921 0 CFG=2
M  V30 7 C -0.398 0.4575 0.5103 0
M  V30 8 C -2.1143 1.9691 -0.6887 0
M  V30 9 C 0.3807 0.296 1.6684 0
M  V30 10 C 0.0517 -0.1411 -0.676 0
M  V30 11 C -3.0817 1.4747 -1.5806 0
M  V30 12 C -1.4664 3.1761 -1.0144 0
M  V30 13 C 1.5765 -0.4292 1.635 0
M  V30 14 C 1.25 -0.8636 -0.7046 0
M  V30 15 C -3.4016 2.1735 -2.7471 0
M  V30 16 C -1.7872 3.8711 -2.1818 0
M  V30 17 C 2.0335 -1.0199 0.4482 0
M  V30 18 C -2.7564 3.3705 -3.0464 0
M  V30 19 C 3.2919 -1.7829 0.4141 0
M  V30 20 C 4.2986 -1.4779 -0.5172 0
M  V30 21 C 3.5233 -2.8388 1.3117 0
M  V30 22 C 5.4939 -2.2014 -0.55 0
M  V30 23 C 4.7175 -3.5639 1.2795 0
M  V30 24 C 5.7024 -3.2443 0.3486 0
M  V30 25 H -3.9019 1.993 2.1698 0
M  V30 26 H -4.6507 -2.1084 1.9439 0
M  V30 27 H -2.3627 -1.5751 0.4975 0
M  V30 28 H -1.5508 2.0292 1.3439 0
M  V30 29 H 0.0609 0.7299 2.6145 0
M  V30 30 H -0.522 -0.0598 -1.597 0
M  V30 31 H -3.6034 0.5401 -1.3843 0
M  V30 32 H -0.6975 3.5822 -0.3589 0
M  V30 33 H 2.1587 -0.524 2.5499 0
M  V30 34 H 1.5631 -1.3209 -1.6417 0
M  V30 35 H -4.1573 1.7806 -3.4233 0
M  V30 36 H -1.2784 4.8024 -2.4176 0
M  V30 37 H -3.0077 3.9114 -3.9551 0
M  V30 38 H 4.161 -0.6598 -1.2214 0
M  V30 39 H 2.7624 -3.1133 2.0397 0
M  V30 40 H 6.2614 -1.9473 -1.2763 0
M  V30 41 H 4.8752 -4.3796 1.9803 0
M  V30 42 H 6.6313 -3.8077 0.3233 0
M  V30 END ATOM
M  V30 BEGIN BOND
M  V30 1 2 1 2
M  V30 2 1 1 3
M  V30 3 1 2 4
M  V30 4 2 3 5
M  V30 5 1 4 6
M  V30 6 1 6 7
M  V30 7 1 6 8
M  V30 8 2 7 9
M  V30 9 1 7 10
M  V30 10 2 8 11
M  V30 11 1 8 12
M  V30 12 1 9 13
M  V30 13 2 10 14
M  V30 14 1 11 15
M  V30 15 2 12 16
M  V30 16 2 13 17
M  V30 17 2 15 18
M  V30 18 1 17 19
M  V30 19 2 19 20
M  V30 20 1 19 21
M  V30 21 1 20 22
M  V30 22 2 21 23
M  V30 23 2 22 24
M  V30 24 1 4 5
M  V30 25 1 14 17
M  V30 26 1 16 18
M  V30 27 1 23 24
M  V30 28 1 2 25
M  V30 29 1 3 26
M  V30 30 1 5 27
M  V30 31 1 6 28
M  V30 32 1 9 29
M  V30 33 1 10 30
M  V30 34 1 11 31
M  V30 35 1 12 32
M  V30 36 1 13 33
M  V30 37 1 14 34
M  V30 38 1 15 35
M  V30 39 1 16 36
M  V30 40 1 18 37
M  V30 41 1 20 38
M  V30 42 1 21 39
M  V30 43 1 22 40
M  V30 44 1 23 41
M  V30 45 1 24 42
M  V30 END BOND
M  V30 BEGIN COLLECTION
M  V30 MDLV30/STERAC1 ATOMS=(1 6)
M  V30 END COLLECTION
M  V30 END CTAB
M  END
>  <level_0>
5968

>  <index>
5968

>  <NO.>
5969

>  <Name>
bifonazole

>  <SMILES>
c1ccc(-c2ccc(C(c3ccccc3)n3ccnc3)cc2)cc1

>  <logBB>


>  <Class>
-1

>  <MW>
310.15

>  <nHBAcc>
1

>  <nHBDon>
0

>  <SLogP>
5.19

>  <TopoPSA>
17.82

>  <MMFF94 Energy>
99.275

$$$$
C#[S@]1(C[C@H]2O[C@H](n3cnc4c3NC=N[C@@H]4N)[C@@H](O)[C@@H]2O)CC[C@H](N)C(=O)O1
Actelion Java MolfileCreator 2.0

  0  0  0  0  0  0              0 V3000
M  V30 BEGIN CTAB
M  V30 COUNTS 49 52 0 0 0
M  V30 BEGIN ATOM
M  V30 1 S -0.2434 2.5173 2.5173 0 CFG=2
M  V30 2 O -0.1065 3.4574 1.2166 0
M  V30 3 C -1.4418 3.3868 3.4551 0
M  V30 4 C 1.3494 2.4547 3.2573 0
M  V30 5 C -0.8373 0.9953 1.8579 0
M  V30 6 C 0.8684 4.3358 0.8735 0
M  V30 7 C 2.4246 3.0432 2.3704 0
M  V30 8 C 0.1073 0.346 0.8493 0 CFG=1
M  V30 9 O 0.7617 5.0435 -0.1236 0
M  V30 10 C 2.057 4.4208 1.8271 0 CFG=2
M  V30 11 O -0.1788 -1.0684 0.8185 0
M  V30 12 C -0.0496 0.8556 -0.5863 0 CFG=1
M  V30 13 N 1.813 5.4164 2.8883 0
M  V30 14 C -0.9135 -1.3678 -0.3828 0 CFG=1
M  V30 15 O 1.2022 0.7134 -1.2617 0
M  V30 16 C -1.0776 -0.0806 -1.1981 0 CFG=1
M  V30 17 N -0.235 -2.4153 -1.1223 0
M  V30 18 O -2.4031 0.441 -1.0324 0
M  V30 19 C -0.8032 -3.323 -1.9606 0
M  V30 20 C 1.1193 -2.6431 -1.1782 0
M  V30 21 N -2.0871 -3.5254 -2.2963 0
M  V30 22 C 0.2189 -4.0702 -2.4837 0
M  V30 23 N 1.4257 -3.6284 -2.002 0
M  V30 24 C -2.3422 -4.5484 -3.1875 0
M  V30 25 C -0.0583 -5.1607 -3.4788 0 CFG=2
M  V30 26 N -1.5044 -5.3441 -3.7634 0
M  V30 27 N 0.4403 -6.4308 -2.9838 0
M  V30 28 H -2.1784 3.9078 4.0225 0
M  V30 29 H 1.5678 1.4072 3.4852 0
M  V30 30 H 1.2871 2.989 4.2105 0
M  V30 31 H -0.9846 0.3334 2.719 0
M  V30 32 H -1.8271 1.182 1.4312 0
M  V30 33 H 2.6032 2.366 1.5256 0
M  V30 34 H 3.365 3.0976 2.9321 0
M  V30 35 H 1.1437 0.4386 1.1881 0
M  V30 36 H 2.9101 4.7676 1.2309 0
M  V30 37 H -0.3399 1.9059 -0.6432 0
M  V30 38 H 1.6792 6.3295 2.4468 0
M  V30 39 H 0.9291 5.2137 3.3574 0
M  V30 40 H -1.8819 -1.7747 -0.0695 0
M  V30 41 H 1.1311 1.1377 -2.1363 0
M  V30 42 H -0.9267 -0.2412 -2.271 0
M  V30 43 H -2.4656 1.2672 -1.5472 0
M  V30 44 H 1.8315 -2.0584 -0.6091 0
M  V30 45 H -2.8693 -2.9999 -1.9222 0
M  V30 46 H -3.4207 -4.6601 -3.3898 0
M  V30 47 H 0.4459 -4.9148 -4.4196 0
M  V30 48 H 0.0362 -7.1338 -3.5958 0
M  V30 49 H 0.0072 -6.5797 -2.0772 0
M  V30 END ATOM
M  V30 BEGIN BOND
M  V30 1 1 1 2
M  V30 2 3 1 3
M  V30 3 1 1 4
M  V30 4 1 1 5
M  V30 5 1 2 6
M  V30 6 1 4 7
M  V30 7 1 5 8
M  V30 8 2 6 9
M  V30 9 1 6 10
M  V30 10 1 8 11
M  V30 11 1 8 12
M  V30 12 1 10 13
M  V30 13 1 11 14
M  V30 14 1 12 15
M  V30 15 1 12 16
M  V30 16 1 14 17
M  V30 17 1 16 18
M  V30 18 1 17 19
M  V30 19 1 17 20
M  V30 20 1 19 21
M  V30 21 2 19 22
M  V30 22 2 20 23
M  V30 23 1 21 24
M  V30 24 1 22 25
M  V30 25 2 24 26
M  V30 26 1 25 27
M  V30 27 1 7 10
M  V30 28 1 14 16
M  V30 29 1 22 23
M  V30 30 1 25 26
M  V30 31 1 3 28
M  V30 32 1 4 29
M  V30 33 1 4 30
M  V30 34 1 5 31
M  V30 35 1 5 32
M  V30 36 1 7 33
M  V30 37 1 7 34
M  V30 38 1 8 35
M  V30 39 1 10 36
M  V30 40 1 12 37
M  V30 41 1 13 38
M  V30 42 1 13 39
M  V30 43 1 14 40
M  V30 44 1 15 41
M  V30 45 1 16 42
M  V30 46 1 18 43
M  V30 47 1 20 44
M  V30 48 1 21 45
M  V30 49 1 24 46
M  V30 50 1 25 47
M  V30 51 1 27 48
M  V30 52 1 27 49
M  V30 END BOND
M  V30 BEGIN COLLECTION
M  V30 MDLV30/STEABS ATOMS=(7 1 8 10 12 14 16 25)
M  V30 END COLLECTION
M  V30 END CTAB
M  END
>  <level_0>
5975

>  <index>
5975

>  <NO.>
5976

>  <Name>


>  <SMILES>
C#[S@]1(C[C@H]2O[C@H](n3cnc4c3NC=N[C@@H]4N)[C@@H](O)[C@@H]2O)CC[C@H](N)C(=O)O1

>  <logBB>


>  <Class>
1

>  <MW>
398.14

>  <nHBAcc>
10

>  <nHBDon>
5

>  <SLogP>
-1.5

>  <TopoPSA>
170.24

>  <MMFF94 Energy>
128.71

$$$$
CC(=O)O[C@H]1C(=O)[C@]2(C)[C@H](O)C[C@H]3OC[C@]3(OC(C)=O)[C@H]2[C@H](OC(=O)c2ccccc2)[C@@]2(O)C[C@@H](OC(=O)[C@@H](O)[C@@H](NC(=O)c3ccccc3)c3ccccc3)[C@@H](C)[C@@H]1C2(C)C
Actelion Java MolfileCreator 2.0

  0  0  0  0  0  0              0 V3000
M  V30 BEGIN CTAB
M  V30 COUNTS 115 121 0 0 0
M  V30 BEGIN ATOM
M  V30 1 O 3.8021 -3.6401 1.2931 0
M  V30 2 C 2.8584 -2.8883 0.9974 0
M  V30 3 C 1.441 -3.505 0.6628 0 CFG=1
M  V30 4 C 3.1457 -1.3599 0.9963 0 CFG=2
M  V30 5 C 0.9315 -3.2584 -0.8672 0 CFG=1
M  V30 6 C 1.5531 -5.0786 0.9422 0 CFG=2
M  V30 7 C 0.4724 -2.9679 1.7465 0
M  V30 8 O 2.1181 -0.5865 1.6289 0
M  V30 9 C 3.734 -0.7011 -0.3114 0 CFG=1
M  V30 10 C -0.3946 -4.0478 -1.1044 0 CFG=2
M  V30 11 C 0.9073 -1.7666 -1.2876 0 CFG=2
M  V30 12 O 2.6707 -5.6417 0.2427 0
M  V30 13 C 0.3352 -5.913 0.484 0
M  V30 14 C 2.1865 -0.5488 2.9991 0
M  V30 15 C 3.5929 -1.4478 -1.6858 0
M  V30 16 C 3.4572 0.8343 -0.5215 0 CFG=1
M  V30 17 O -1.3799 -3.6793 -0.0906 0
M  V30 18 C 0.1217 -5.526 -0.9561 0 CFG=1
M  V30 19 C -0.951 -4.7349 -2.4281 0
M  V30 20 O -0.4109 -1.2748 -1.6959 0
M  V30 21 C 2.1134 -1.2662 -2.2297 0 CFG=1
M  V30 22 O 2.9886 -1.1671 3.6828 0
M  V30 23 C 1.1145 0.3219 3.5707 0
M  V30 24 C 4.1325 -2.9031 -1.6758 0
M  V30 25 C 4.6282 -0.8186 -2.7132 0
M  V30 26 C 2.1985 1.188 -1.3611 0 CFG=1
M  V30 27 C 3.5982 1.7104 0.7292 0
M  V30 28 C -2.6165 -3.2473 -0.4397 0
M  V30 29 O -1.0721 -5.9978 -1.6414 0
M  V30 30 C -0.8874 -1.4606 -2.9525 0
M  V30 31 O 2.1116 -1.99 -3.4662 0
M  V30 32 C 1.9056 0.2441 -2.5442 0
M  V30 33 O 1.038 1.2763 -0.5102 0
M  V30 34 O -3.0006 -2.9576 -1.5594 0
M  V30 35 C -3.4613 -3.111 0.7908 0
M  V30 36 O -0.3696 -2.1824 -3.7893 0
M  V30 37 C -2.0365 -0.5645 -3.2458 0
M  V30 38 C 0.1368 2.2554 -0.8548 0
M  V30 39 C -2.376 -0.343 -4.5874 0
M  V30 40 C -2.7644 0.0753 -2.2372 0
M  V30 41 O 0.1985 2.9366 -1.8694 0
M  V30 42 C -0.9711 2.3581 0.1983 0 CFG=1
M  V30 43 C -3.4211 0.5227 -4.9145 0
M  V30 44 C -3.8072 0.9432 -2.5678 0
M  V30 45 O -0.7402 1.5452 1.3583 0
M  V30 46 C -1.1922 3.8498 0.5681 0 CFG=1
M  V30 47 C -4.1319 1.1688 -3.9045 0
M  V30 48 N -2.3148 4.0432 1.4886 0
M  V30 49 C 0.0592 4.5142 1.1342 0
M  V30 50 C -3.6161 3.8219 1.1022 0
M  V30 51 C 0.7523 5.4639 0.3671 0
M  V30 52 C 0.5595 4.1877 2.405 0
M  V30 53 O -3.9211 3.3997 -0.0075 0
M  V30 54 C -4.667 4.081 2.124 0
M  V30 55 C 1.9125 6.0666 0.8564 0
M  V30 56 C 1.7192 4.7917 2.8935 0
M  V30 57 C -4.5044 5.0393 3.1332 0
M  V30 58 C -5.8621 3.3545 2.0457 0
M  V30 59 C 2.3953 5.7304 2.1188 0
M  V30 60 C -5.521 5.2469 4.0688 0
M  V30 61 C -6.8746 3.5647 2.9833 0
M  V30 62 C -6.7015 4.5074 3.9959 0
M  V30 63 H 4.0166 -1.2919 1.6687 0
M  V30 64 H 1.662 -3.7249 -1.5293 0
M  V30 65 H 1.7245 -5.2635 2.0104 0
M  V30 66 H 0.0464 -1.9969 1.4811 0
M  V30 67 H 0.9828 -2.8682 2.7101 0
M  V30 68 H -0.3607 -3.6428 1.9571 0
M  V30 69 H 4.82 -0.7427 -0.1168 0
M  V30 70 H 1.0277 -1.2016 -0.3707 0
M  V30 71 H 3.4769 -5.2666 0.6623 0
M  V30 72 H -0.5438 -5.7217 1.1056 0
M  V30 73 H 0.561 -6.9833 0.552 0
M  V30 74 H 4.3023 1.1782 -1.133 0
M  V30 75 H 0.9976 -5.8089 -1.5636 0
M  V30 76 H -0.2445 -4.8454 -3.2609 0
M  V30 77 H -1.9192 -4.4487 -2.8339 0
M  V30 78 H 1.2304 1.3401 3.2 0
M  V30 79 H 0.1323 -0.084 3.3207 0
M  V30 80 H 1.2106 0.344 4.6603 0
M  V30 81 H 4.2195 -3.3059 -2.6928 0
M  V30 82 H 3.5386 -3.6267 -1.1429 0
M  V30 83 H 5.1356 -2.9393 -1.2326 0
M  V30 84 H 4.5778 -1.3202 -3.6872 0
M  V30 85 H 4.4964 0.2446 -2.9147 0
M  V30 86 H 5.655 -0.9318 -2.3426 0
M  V30 87 H 2.397 2.1854 -1.778 0
M  V30 88 H 4.4468 1.3893 1.3414 0
M  V30 89 H 3.7819 2.7505 0.4347 0
M  V30 90 H 2.7022 1.7237 1.3498 0
M  V30 91 H 1.2053 -2.0353 -3.8349 0
M  V30 92 H 0.8941 0.4242 -2.9196 0
M  V30 93 H 2.5273 0.5301 -3.4005 0
M  V30 94 H -3.4645 -4.0525 1.3462 0
M  V30 95 H -3.0777 -2.2987 1.413 0
M  V30 96 H -4.4905 -2.8812 0.5007 0
M  V30 97 H -1.8261 -0.8387 -5.3845 0
M  V30 98 H -2.5446 -0.1073 -1.1907 0
M  V30 99 H -1.872 1.953 -0.2661 0
M  V30 100 H -3.6791 0.6948 -5.9564 0
M  V30 101 H -4.3679 1.4468 -1.7825 0
M  V30 102 H -0.3315 0.7284 1.0173 0
M  V30 103 H -1.4744 4.3823 -0.3508 0
M  V30 104 H -4.9432 1.8473 -4.1569 0
M  V30 105 H -2.1053 4.2859 2.4454 0
M  V30 106 H 0.3976 5.7369 -0.6259 0
M  V30 107 H 0.0499 3.4516 3.023 0
M  V30 108 H 2.4396 6.7988 0.2497 0
M  V30 109 H 2.0962 4.5289 3.8786 0
M  V30 110 H -3.6105 5.6533 3.1898 0
M  V30 111 H -6.0065 2.6224 1.254 0
M  V30 112 H 3.2986 6.2013 2.4981 0
M  V30 113 H -5.398 5.9941 4.8494 0
M  V30 114 H -7.7997 2.9969 2.9198 0
M  V30 115 H -7.493 4.6741 4.723 0
M  V30 END ATOM
M  V30 BEGIN BOND
M  V30 1 2 1 2
M  V30 2 1 2 3
M  V30 3 1 2 4
M  V30 4 1 3 5
M  V30 5 1 3 6
M  V30 6 1 3 7
M  V30 7 1 4 8
M  V30 8 1 4 9
M  V30 9 1 5 10
M  V30 10 1 5 11
M  V30 11 1 6 12
M  V30 12 1 6 13
M  V30 13 1 8 14
M  V30 14 1 9 15
M  V30 15 1 9 16
M  V30 16 1 10 17
M  V30 17 1 10 18
M  V30 18 1 10 19
M  V30 19 1 11 20
M  V30 20 1 11 21
M  V30 21 2 14 22
M  V30 22 1 14 23
M  V30 23 1 15 24
M  V30 24 1 15 25
M  V30 25 1 16 26
M  V30 26 1 16 27
M  V30 27 1 17 28
M  V30 28 1 18 29
M  V30 29 1 20 30
M  V30 30 1 21 31
M  V30 31 1 21 32
M  V30 32 1 26 33
M  V30 33 2 28 34
M  V30 34 1 28 35
M  V30 35 2 30 36
M  V30 36 1 30 37
M  V30 37 1 33 38
M  V30 38 2 37 39
M  V30 39 1 37 40
M  V30 40 2 38 41
M  V30 41 1 38 42
M  V30 42 1 39 43
M  V30 43 2 40 44
M  V30 44 1 42 45
M  V30 45 1 42 46
M  V30 46 2 43 47
M  V30 47 1 46 48
M  V30 48 1 46 49
M  V30 49 1 48 50
M  V30 50 2 49 51
M  V30 51 1 49 52
M  V30 52 2 50 53
M  V30 53 1 50 54
M  V30 54 1 51 55
M  V30 55 2 52 56
M  V30 56 2 54 57
M  V30 57 1 54 58
M  V30 58 2 55 59
M  V30 59 1 57 60
M  V30 60 2 58 61
M  V30 61 2 60 62
M  V30 62 1 13 18
M  V30 63 1 15 21
M  V30 64 1 19 29
M  V30 65 1 26 32
M  V30 66 1 44 47
M  V30 67 1 56 59
M  V30 68 1 61 62
M  V30 69 1 4 63
M  V30 70 1 5 64
M  V30 71 1 6 65
M  V30 72 1 7 66
M  V30 73 1 7 67
M  V30 74 1 7 68
M  V30 75 1 9 69
M  V30 76 1 11 70
M  V30 77 1 12 71
M  V30 78 1 13 72
M  V30 79 1 13 73
M  V30 80 1 16 74
M  V30 81 1 18 75
M  V30 82 1 19 76
M  V30 83 1 19 77
M  V30 84 1 23 78
M  V30 85 1 23 79
M  V30 86 1 23 80
M  V30 87 1 24 81
M  V30 88 1 24 82
M  V30 89 1 24 83
M  V30 90 1 25 84
M  V30 91 1 25 85
M  V30 92 1 25 86
M  V30 93 1 26 87
M  V30 94 1 27 88
M  V30 95 1 27 89
M  V30 96 1 27 90
M  V30 97 1 31 91
M  V30 98 1 32 92
M  V30 99 1 32 93
M  V30 100 1 35 94
M  V30 101 1 35 95
M  V30 102 1 35 96
M  V30 103 1 39 97
M  V30 104 1 40 98
M  V30 105 1 42 99
M  V30 106 1 43 100
M  V30 107 1 44 101
M  V30 108 1 45 102
M  V30 109 1 46 103
M  V30 110 1 47 104
M  V30 111 1 48 105
M  V30 112 1 51 106
M  V30 113 1 52 107
M  V30 114 1 55 108
M  V30 115 1 56 109
M  V30 116 1 57 110
M  V30 117 1 58 111
M  V30 118 1 59 112
M  V30 119 1 60 113
M  V30 120 1 61 114
M  V30 121 1 62 115
M  V30 END BOND
M  V30 BEGIN COLLECTION
M  V30 MDLV30/STEABS ATOMS=(13 3 4 5 6 9 10 11 16 18 21 26 42 46)
M  V30 END COLLECTION
M  V30 END CTAB
M  END
>  <level_0>
6050

>  <index>
6050

>  <NO.>
6051

>  <Name>


>  <SMILES>
CC(=O)O[C@H]1C(=O)[C@]2(C)[C@H](O)C[C@H]3OC[C@]3(OC(C)=O)[C@H]2[C@H](OC(=O)c2ccccc2)[C@@]2(O)C[C@@H](OC(=O)[C@@H](O)[C@@H](NC(=O)c3ccccc3)c3ccccc3)[C@@H](C)[C@@H]1C2(C)C

>  <logBB>


>  <Class>
-1

>  <MW>
855.35

>  <nHBAcc>
14

>  <nHBDon>
4

>  <SLogP>
3.67

>  <TopoPSA>
221.29

>  <MMFF94 Energy>
255.3

$$$$
CC(=O)O[C@]12CO[C@H]1C[C@H](O)[C@]1(C)C(=O)[C@H](O)[C@H]3[C@@H](C)[C@@H](OC(=O)[C@H](O)[C@H](NC(=O)OC(C)(C)C)c4ccccc4)C[C@@](O)([C@@H](OC(=O)c4ccccc4)[C@H]21)C3(C)C
Actelion Java MolfileCreator 2.0

  0  0  0  0  0  0              0 V3000
M  V30 BEGIN CTAB
M  V30 COUNTS 113 118 0 0 0
M  V30 BEGIN ATOM
M  V30 1 O 1.3672 0.6432 -4.9127 0
M  V30 2 C 1.0576 0.5266 -3.7207 0
M  V30 3 C 1.3447 1.6116 -2.6746 0 CFG=2
M  V30 4 C 0.565 -0.8133 -3.2295 0 CFG=2
M  V30 5 C 0.1933 1.8877 -1.6086 0 CFG=1
M  V30 6 C 1.7481 2.9034 -3.4353 0 CFG=1
M  V30 7 C 2.6223 1.0243 -1.9852 0
M  V30 8 O 1.5318 -1.7624 -3.7112 0
M  V30 9 C -0.8324 -1.2478 -3.6847 0 CFG=2
M  V30 10 C 0.4851 3.3593 -0.9404 0 CFG=2
M  V30 11 C -1.3666 1.7968 -1.9881 0 CFG=2
M  V30 12 O 0.575 3.5662 -3.9146 0
M  V30 13 C 2.5309 3.8907 -2.5796 0
M  V30 14 C -1.9094 -0.1204 -3.9035 0
M  V30 15 C -1.3869 -2.3364 -2.6928 0 CFG=2
M  V30 16 O -0.6854 4.2184 -1.0887 0
M  V30 17 C 1.8056 4.1439 -1.275 0 CFG=2
M  V30 18 C 1.1871 3.1856 0.4418 0
M  V30 19 O -2.2193 2.341 -0.885 0
M  V30 20 C -2.2686 0.5761 -2.5427 0 CFG=2
M  V30 21 C -3.1806 -0.8148 -4.5342 0
M  V30 22 C -1.5488 0.9061 -5.0045 0
M  V30 23 C -1.8399 -1.7409 -1.3398 0 CFG=2
M  V30 24 C -0.4476 -3.5329 -2.4817 0
M  V30 25 C -0.8205 5.367 -0.3745 0
M  V30 26 O 2.4708 3.5744 -0.1209 0
M  V30 27 C -2.0736 2.0277 0.4192 0
M  V30 28 O -3.562 1.2427 -2.8122 0
M  V30 29 C -2.7108 -0.4973 -1.5001 0
M  V30 30 O -0.7058 -1.4409 -0.5116 0
M  V30 31 O -0.0374 5.8139 0.4477 0
M  V30 32 C -2.0832 6.0655 -0.7823 0
M  V30 33 O -1.2079 1.3206 0.9027 0
M  V30 34 C -3.1056 2.7282 1.22 0
M  V30 35 C -0.8862 -1.5747 0.8395 0
M  V30 36 C -2.8358 2.9944 2.5676 0
M  V30 37 C -4.3329 3.1146 0.6653 0
M  V30 38 O -1.9438 -1.872 1.3802 0
M  V30 39 C 0.4376 -1.3448 1.5786 0 CFG=2
M  V30 40 C -3.7807 3.6597 3.3501 0
M  V30 41 C -5.2753 3.7782 1.4527 0
M  V30 42 O 1.5607 -1.0556 0.7292 0
M  V30 43 C 0.7395 -2.5555 2.4954 0 CFG=2
M  V30 44 C -4.9973 4.0525 2.7919 0
M  V30 45 N 1.9211 -2.2875 3.305 0
M  V30 46 C 0.9123 -3.8539 1.71 0
M  V30 47 C 2.0684 -2.7163 4.584 0
M  V30 48 C 2.1038 -4.1627 1.0328 0
M  V30 49 C -0.1568 -4.7611 1.6282 0
M  V30 50 O 1.2248 -3.3222 5.2235 0
M  V30 51 O 3.295 -2.3521 5.0207 0
M  V30 52 C 2.2171 -5.3383 0.2885 0
M  V30 53 C -0.0408 -5.9367 0.8848 0
M  V30 54 C 3.7323 -2.6871 6.3626 0
M  V30 55 C 1.1446 -6.2234 0.2133 0
M  V30 56 C 2.8549 -2.0092 7.4208 0
M  V30 57 C 5.1537 -2.1127 6.4636 0
M  V30 58 C 3.8031 -4.205 6.563 0
M  V30 59 H 0.6563 -0.8286 -2.151 0
M  V30 60 H 0.333 1.1343 -0.8283 0
M  V30 61 H 2.367 2.6743 -4.3111 0
M  V30 62 H 3.4159 0.8532 -2.7241 0
M  V30 63 H 2.4324 0.061 -1.5055 0
M  V30 64 H 3.0459 1.6536 -1.2075 0
M  V30 65 H 1.6534 -1.5715 -4.6637 0
M  V30 66 H -0.7071 -1.7584 -4.6517 0
M  V30 67 H -1.4805 2.5777 -2.7495 0
M  V30 68 H 0.8552 4.1429 -4.65 0
M  V30 69 H 3.5535 3.5407 -2.4009 0
M  V30 70 H 2.6241 4.8384 -3.1256 0
M  V30 71 H -2.2753 -2.7772 -3.1594 0
M  V30 72 H 1.7423 5.231 -1.1361 0
M  V30 73 H 1.2444 2.1698 0.8435 0
M  V30 74 H 0.8955 3.8435 1.263 0
M  V30 75 H -3.7097 -1.4784 -3.8478 0
M  V30 76 H -2.8993 -1.4069 -5.4135 0
M  V30 77 H -3.923 -0.0821 -4.8732 0
M  V30 78 H -0.8563 1.6741 -4.6772 0
M  V30 79 H -2.4318 1.4593 -5.3478 0
M  V30 80 H -1.1264 0.4065 -5.8835 0
M  V30 81 H -2.4378 -2.5187 -0.8449 0
M  V30 82 H -0.1464 -3.9624 -3.4427 0
M  V30 83 H 0.454 -3.2711 -1.9211 0
M  V30 84 H -0.9615 -4.3193 -1.9178 0
M  V30 85 H -3.3954 2.0461 -3.3348 0
M  V30 86 H -2.8939 -0.049 -0.5241 0
M  V30 87 H -3.7115 -0.8552 -1.7833 0
M  V30 88 H -1.91 6.6247 -1.7044 0
M  V30 89 H -2.8894 5.3423 -0.9277 0
M  V30 90 H -2.3894 6.7517 0.0122 0
M  V30 91 H -1.8907 2.6884 3.0116 0
M  V30 92 H -4.5681 2.8928 -0.3733 0
M  V30 93 H 0.3012 -0.4498 2.1962 0
M  V30 94 H -3.5694 3.8683 4.3963 0
M  V30 95 H -6.2295 4.0752 1.0242 0
M  V30 96 H 1.5241 -1.7139 0.0093 0
M  V30 97 H -0.1014 -2.6874 3.1891 0
M  V30 98 H -5.7337 4.5669 3.4052 0
M  V30 99 H 2.703 -1.7999 2.8902 0
M  V30 100 H 2.959 -3.4921 1.0817 0
M  V30 101 H -1.0932 -4.5584 2.1472 0
M  V30 102 H 3.1455 -5.5657 -0.2291 0
M  V30 103 H -0.8764 -6.6301 0.8343 0
M  V30 104 H 1.2352 -7.1404 -0.3626 0
M  V30 105 H 1.8444 -2.4281 7.4442 0
M  V30 106 H 3.2797 -2.1242 8.4238 0
M  V30 107 H 2.7465 -0.9396 7.2088 0
M  V30 108 H 5.1499 -1.0304 6.2886 0
M  V30 109 H 5.6009 -2.3027 7.4449 0
M  V30 110 H 5.8049 -2.5472 5.6963 0
M  V30 111 H 2.8097 -4.6635 6.5704 0
M  V30 112 H 4.3616 -4.6789 5.7481 0
M  V30 113 H 4.2877 -4.4594 7.5118 0
M  V30 END ATOM
M  V30 BEGIN BOND
M  V30 1 2 1 2
M  V30 2 1 2 3
M  V30 3 1 2 4
M  V30 4 1 3 5
M  V30 5 1 3 6
M  V30 6 1 3 7
M  V30 7 1 4 8
M  V30 8 1 4 9
M  V30 9 1 5 10
M  V30 10 1 5 11
M  V30 11 1 6 12
M  V30 12 1 6 13
M  V30 13 1 9 14
M  V30 14 1 9 15
M  V30 15 1 10 16
M  V30 16 1 10 17
M  V30 17 1 10 18
M  V30 18 1 11 19
M  V30 19 1 11 20
M  V30 20 1 14 21
M  V30 21 1 14 22
M  V30 22 1 15 23
M  V30 23 1 15 24
M  V30 24 1 16 25
M  V30 25 1 17 26
M  V30 26 1 19 27
M  V30 27 1 20 28
M  V30 28 1 20 29
M  V30 29 1 23 30
M  V30 30 2 25 31
M  V30 31 1 25 32
M  V30 32 2 27 33
M  V30 33 1 27 34
M  V30 34 1 30 35
M  V30 35 2 34 36
M  V30 36 1 34 37
M  V30 37 2 35 38
M  V30 38 1 35 39
M  V30 39 1 36 40
M  V30 40 2 37 41
M  V30 41 1 39 42
M  V30 42 1 39 43
M  V30 43 2 40 44
M  V30 44 1 43 45
M  V30 45 1 43 46
M  V30 46 1 45 47
M  V30 47 2 46 48
M  V30 48 1 46 49
M  V30 49 2 47 50
M  V30 50 1 47 51
M  V30 51 1 48 52
M  V30 52 2 49 53
M  V30 53 1 51 54
M  V30 54 2 52 55
M  V30 55 1 54 56
M  V30 56 1 54 57
M  V30 57 1 54 58
M  V30 58 1 13 17
M  V30 59 1 14 20
M  V30 60 1 18 26
M  V30 61 1 23 29
M  V30 62 1 41 44
M  V30 63 1 53 55
M  V30 64 1 4 59
M  V30 65 1 5 60
M  V30 66 1 6 61
M  V30 67 1 7 62
M  V30 68 1 7 63
M  V30 69 1 7 64
M  V30 70 1 8 65
M  V30 71 1 9 66
M  V30 72 1 11 67
M  V30 73 1 12 68
M  V30 74 1 13 69
M  V30 75 1 13 70
M  V30 76 1 15 71
M  V30 77 1 17 72
M  V30 78 1 18 73
M  V30 79 1 18 74
M  V30 80 1 21 75
M  V30 81 1 21 76
M  V30 82 1 21 77
M  V30 83 1 22 78
M  V30 84 1 22 79
M  V30 85 1 22 80
M  V30 86 1 23 81
M  V30 87 1 24 82
M  V30 88 1 24 83
M  V30 89 1 24 84
M  V30 90 1 28 85
M  V30 91 1 29 86
M  V30 92 1 29 87
M  V30 93 1 32 88
M  V30 94 1 32 89
M  V30 95 1 32 90
M  V30 96 1 36 91
M  V30 97 1 37 92
M  V30 98 1 39 93
M  V30 99 1 40 94
M  V30 100 1 41 95
M  V30 101 1 42 96
M  V30 102 1 43 97
M  V30 103 1 44 98
M  V30 104 1 45 99
M  V30 105 1 48 100
M  V30 106 1 49 101
M  V30 107 1 52 102
M  V30 108 1 53 103
M  V30 109 1 55 104
M  V30 110 1 56 105
M  V30 111 1 56 106
M  V30 112 1 56 107
M  V30 113 1 57 108
M  V30 114 1 57 109
M  V30 115 1 57 110
M  V30 116 1 58 111
M  V30 117 1 58 112
M  V30 118 1 58 113
M  V30 END BOND
M  V30 BEGIN COLLECTION
M  V30 MDLV30/STEABS ATOMS=(13 3 4 5 6 9 10 11 15 17 20 23 39 43)
M  V30 END COLLECTION
M  V30 END CTAB
M  END
>  <level_0>
6054

>  <index>
6054

>  <NO.>
6055

>  <Name>


>  <SMILES>
CC(=O)O[C@]12CO[C@H]1C[C@H](O)[C@]1(C)C(=O)[C@H](O)[C@H]3[C@@H](C)[C@@H](OC(=O)[C@H](O)[C@H](NC(=O)OC(C)(C)C)c4ccccc4)C[C@@](O)([C@@H](OC(=O)c4ccccc4)[C@H]21)C3(C)C

>  <logBB>


>  <Class>
-1

>  <MW>
809.36

>  <nHBAcc>
14

>  <nHBDon>
5

>  <SLogP>
3.2

>  <TopoPSA>
224.45

>  <MMFF94 Energy>
202.18

$$$$
CC(C)(O/N=C(/C(=O)N[C@H]1C(=O)N2C(C(=O)O)=C(CN3C=CCC=C3)CS[C@H]12)c1csc(N)n1)C(=O)O
Actelion Java MolfileCreator 2.0

  0  0  0  0  0  0              0 V3000
M  V30 BEGIN CTAB
M  V30 COUNTS 61 64 0 0 0
M  V30 BEGIN ATOM
M  V30 1 S 2.3671 -1.632 0.4894 0
M  V30 2 C 0.8575 -0.6402 0.4586 0 CFG=1
M  V30 3 C 1.5158 -3.099 1.1694 0
M  V30 4 N 0.4037 -0.5132 1.826 0
M  V30 5 C 1.034 0.9122 0.4686 0 CFG=2
M  V30 6 C 0.6271 -2.8007 2.3663 0
M  V30 7 C 0.1541 -1.5633 2.6448 0
M  V30 8 C 0.2443 0.8216 1.8279 0
M  V30 9 N 0.3245 1.6896 -0.5814 0
M  V30 10 C 0.3231 -4.0155 3.2261 0
M  V30 11 C -0.6155 -1.2972 3.8835 0
M  V30 12 O -0.2868 1.5938 2.5894 0
M  V30 13 C 0.3577 1.3461 -1.9161 0
M  V30 14 N 1.5557 -4.5452 3.8353 0
M  V30 15 O -1.738 -1.7025 4.1245 0
M  V30 16 O 0.0977 -0.5642 4.7534 0
M  V30 17 O 0.8974 0.3501 -2.3716 0
M  V30 18 C -0.4133 2.3003 -2.8232 0
M  V30 19 C 2.2444 -3.8232 4.809 0
M  V30 20 C 2.0389 -5.8058 3.4898 0
M  V30 21 N -1.6873 2.41 -2.5559 0
M  V30 22 C 0.3211 3.0214 -3.8573 0
M  V30 23 C 3.3612 -4.2649 5.4067 0
M  V30 24 C 3.1456 -6.3459 4.022 0
M  V30 25 O -2.3388 3.3715 -3.3445 0
M  V30 26 N 1.6459 3.3939 -3.6306 0
M  V30 27 C -0.1508 3.3726 -5.1095 0
M  V30 28 C 3.9502 -5.6059 5.0583 0
M  V30 29 C -3.7498 3.4061 -3.0721 0
M  V30 30 C 2.1386 4.0116 -4.674 0
M  V30 31 S 1.0629 4.1925 -5.996 0
M  V30 32 C -4.3584 4.4232 -4.0435 0
M  V30 33 C -4.4059 2.0508 -3.3457 0
M  V30 34 C -3.9943 3.8756 -1.6351 0
M  V30 35 N 3.3901 4.4747 -4.7245 0
M  V30 36 O -5.2588 5.2147 -3.8048 0
M  V30 37 O -3.8389 4.3716 -5.2912 0
M  V30 38 H 0.0699 -1.0154 -0.2061 0
M  V30 39 H 2.3128 -3.7983 1.4336 0
M  V30 40 H 0.9175 -3.5639 0.3782 0
M  V30 41 H 2.0568 1.2834 0.6029 0
M  V30 42 H -0.2185 2.5099 -0.3242 0
M  V30 43 H -0.1582 -4.7716 2.5918 0
M  V30 44 H -0.3952 -3.814 4.0262 0
M  V30 45 H -0.5229 -0.3751 5.4863 0
M  V30 46 H 1.8191 -2.8567 5.0633 0
M  V30 47 H 1.458 -6.3415 2.7449 0
M  V30 48 H 3.8607 -3.6603 6.1552 0
M  V30 49 H 3.4814 -7.3302 3.7165 0
M  V30 50 H -1.1233 3.1879 -5.5434 0
M  V30 51 H 4.9702 -5.4633 4.6852 0
M  V30 52 H 4.0082 -6.2161 5.9665 0
M  V30 53 H -4.0643 1.2888 -2.637 0
M  V30 54 H -4.1491 1.6881 -4.3476 0
M  V30 55 H -5.4975 2.1128 -3.2764 0
M  V30 56 H -3.506 4.8403 -1.4547 0
M  V30 57 H -5.0627 3.9901 -1.4227 0
M  V30 58 H -3.5799 3.1708 -0.9061 0
M  V30 59 H 3.7615 4.9387 -5.5416 0
M  V30 60 H 4.0104 4.3362 -3.9376 0
M  V30 61 H -4.3282 5.0672 -5.779 0
M  V30 END ATOM
M  V30 BEGIN BOND
M  V30 1 1 1 2
M  V30 2 1 1 3
M  V30 3 1 2 4
M  V30 4 1 2 5
M  V30 5 1 3 6
M  V30 6 1 4 7
M  V30 7 1 4 8
M  V30 8 1 5 9
M  V30 9 1 6 10
M  V30 10 1 7 11
M  V30 11 2 8 12
M  V30 12 1 9 13
M  V30 13 1 10 14
M  V30 14 2 11 15
M  V30 15 1 11 16
M  V30 16 2 13 17
M  V30 17 1 13 18
M  V30 18 1 14 19
M  V30 19 1 14 20
M  V30 20 2 18 21
M  V30 21 1 18 22
M  V30 22 2 19 23
M  V30 23 2 20 24
M  V30 24 1 21 25
M  V30 25 1 22 26
M  V30 26 2 22 27
M  V30 27 1 23 28
M  V30 28 1 25 29
M  V30 29 2 26 30
M  V30 30 1 27 31
M  V30 31 1 29 32
M  V30 32 1 29 33
M  V30 33 1 29 34
M  V30 34 1 30 35
M  V30 35 2 32 36
M  V30 36 1 32 37
M  V30 37 1 5 8
M  V30 38 2 6 7
M  V30 39 1 24 28
M  V30 40 1 30 31
M  V30 41 1 2 38
M  V30 42 1 3 39
M  V30 43 1 3 40
M  V30 44 1 5 41
M  V30 45 1 9 42
M  V30 46 1 10 43
M  V30 47 1 10 44
M  V30 48 1 16 45
M  V30 49 1 19 46
M  V30 50 1 20 47
M  V30 51 1 23 48
M  V30 52 1 24 49
M  V30 53 1 27 50
M  V30 54 1 28 51
M  V30 55 1 28 52
M  V30 56 1 33 53
M  V30 57 1 33 54
M  V30 58 1 33 55
M  V30 59 1 34 56
M  V30 60 1 34 57
M  V30 61 1 34 58
M  V30 62 1 35 59
M  V30 63 1 35 60
M  V30 64 1 37 61
M  V30 END BOND
M  V30 BEGIN COLLECTION
M  V30 MDLV30/STEABS ATOMS=(2 2 5)
M  V30 END COLLECTION
M  V30 END CTAB
M  END
>  <level_0>
6086

>  <index>
6086

>  <NO.>
6087

>  <Name>


>  <SMILES>
CC(C)(O/N=C(/C(=O)N[C@H]1C(=O)N2C(C(=O)O)=C(CN3C=CCC=C3)CS[C@H]12)c1csc(N)n1)C(=O)O

>  <logBB>


>  <Class>
-1

>  <MW>
548.11

>  <nHBAcc>
11

>  <nHBDon>
4

>  <SLogP>
0.78

>  <TopoPSA>
187.75

>  <MMFF94 Energy>
47.838

$$$$
CC(C)/N=C1\C=C2C(=C[C@@H]1Nc1ccc(Cl)cc1)Nc1ccccc1N2c1ccc(Cl)cc1
Actelion Java MolfileCreator 2.0

  0  0  0  0  0  0              0 V3000
M  V30 BEGIN CTAB
M  V30 COUNTS 57 61 0 0 0
M  V30 BEGIN ATOM
M  V30 1 Cl -6.332 -2.1073 0.2429 0
M  V30 2 C -5.0213 -0.9928 0.2542 0
M  V30 3 C -4.2957 -0.7674 -0.9148 0
M  V30 4 C -4.694 -0.323 1.4325 0
M  V30 5 C -3.2311 0.1365 -0.9061 0
M  V30 6 C -3.6298 0.581 1.4422 0
M  V30 7 C -2.8893 0.8173 0.2728 0
M  V30 8 N -1.7914 1.7347 0.2841 0
M  V30 9 C -0.4604 1.2278 0.3827 0
M  V30 10 C -2.0198 3.1604 0.2361 0
M  V30 11 C 0.6663 2.1915 0.2902 0
M  V30 12 C -0.1764 -0.0747 0.6099 0
M  V30 13 C -0.9199 4.045 0.2656 0
M  V30 14 C -3.3127 3.7127 0.1525 0
M  V30 15 N 0.3834 3.5368 0.3071 0
M  V30 16 C 1.9319 1.7557 0.157 0
M  V30 17 C 1.2268 -0.5611 0.7432 0
M  V30 18 C -1.127 5.4317 0.2446 0
M  V30 19 C -3.5085 5.0964 0.1248 0
M  V30 20 C 2.3204 0.3126 0.0967 0 CFG=1
M  V30 21 N 1.6027 -1.6485 1.3277 0
M  V30 22 C -2.4166 5.9554 0.176 0
M  V30 23 N 2.4798 -0.0083 -1.3173 0
M  V30 24 C 0.6585 -2.5557 1.9731 0
M  V30 25 C 3.2061 -1.0676 -1.824 0
M  V30 26 C 0.1897 -3.5958 0.9601 0
M  V30 27 C 1.3938 -3.2348 3.1268 0
M  V30 28 C 3.9521 -1.9517 -1.037 0
M  V30 29 C 3.2537 -1.2424 -3.216 0
M  V30 30 C 4.6952 -2.9905 -1.6117 0
M  V30 31 C 3.9947 -2.2752 -3.8007 0
M  V30 32 C 4.7121 -3.1484 -2.9923 0
M  V30 33 Cl 5.6249 -4.4217 -3.7014 0
M  V30 34 H -4.5527 -1.2888 -1.833 0
M  V30 35 H -5.2602 -0.4992 2.3433 0
M  V30 36 H -2.667 0.3165 -1.8182 0
M  V30 37 H -3.3706 1.1026 2.3609 0
M  V30 38 H -0.952 -0.8167 0.7257 0
M  V30 39 H -4.1918 3.0764 0.1054 0
M  V30 40 H 1.1525 4.1908 0.2725 0
M  V30 41 H 2.7502 2.4635 0.07 0
M  V30 42 H -0.2816 6.1135 0.2753 0
M  V30 43 H -4.5165 5.4993 0.0633 0
M  V30 44 H 3.2558 0.193 0.656 0
M  V30 45 H -2.5678 7.0317 0.1567 0
M  V30 46 H 1.847 0.4619 -1.9538 0
M  V30 47 H -0.2018 -2.0278 2.3989 0
M  V30 48 H -0.336 -3.1249 0.1232 0
M  V30 49 H 1.0361 -4.1522 0.5416 0
M  V30 50 H -0.4932 -4.3135 1.4263 0
M  V30 51 H 1.7402 -2.4917 3.8535 0
M  V30 52 H 2.2737 -3.7834 2.7723 0
M  V30 53 H 0.7378 -3.9397 3.6481 0
M  V30 54 H 3.9619 -1.8665 0.046 0
M  V30 55 H 2.7067 -0.5646 -3.8674 0
M  V30 56 H 5.253 -3.6671 -0.9704 0
M  V30 57 H 4.0063 -2.3855 -4.8811 0
M  V30 END ATOM
M  V30 BEGIN BOND
M  V30 1 1 1 2
M  V30 2 2 2 3
M  V30 3 1 2 4
M  V30 4 1 3 5
M  V30 5 2 4 6
M  V30 6 2 5 7
M  V30 7 1 7 8
M  V30 8 1 8 9
M  V30 9 1 8 10
M  V30 10 1 9 11
M  V30 11 2 9 12
M  V30 12 2 10 13
M  V30 13 1 10 14
M  V30 14 1 11 15
M  V30 15 2 11 16
M  V30 16 1 12 17
M  V30 17 1 13 18
M  V30 18 2 14 19
M  V30 19 1 16 20
M  V30 20 2 17 21
M  V30 21 2 18 22
M  V30 22 1 20 23
M  V30 23 1 21 24
M  V30 24 1 23 25
M  V30 25 1 24 26
M  V30 26 1 24 27
M  V30 27 2 25 28
M  V30 28 1 25 29
M  V30 29 1 28 30
M  V30 30 2 29 31
M  V30 31 2 30 32
M  V30 32 1 32 33
M  V30 33 1 6 7
M  V30 34 1 13 15
M  V30 35 1 17 20
M  V30 36 1 19 22
M  V30 37 1 31 32
M  V30 38 1 3 34
M  V30 39 1 4 35
M  V30 40 1 5 36
M  V30 41 1 6 37
M  V30 42 1 12 38
M  V30 43 1 14 39
M  V30 44 1 15 40
M  V30 45 1 16 41
M  V30 46 1 18 42
M  V30 47 1 19 43
M  V30 48 1 20 44
M  V30 49 1 22 45
M  V30 50 1 23 46
M  V30 51 1 24 47
M  V30 52 1 26 48
M  V30 53 1 26 49
M  V30 54 1 26 50
M  V30 55 1 27 51
M  V30 56 1 27 52
M  V30 57 1 27 53
M  V30 58 1 28 54
M  V30 59 1 29 55
M  V30 60 1 30 56
M  V30 61 1 31 57
M  V30 END BOND
M  V30 BEGIN COLLECTION
M  V30 MDLV30/STEABS ATOMS=(1 20)
M  V30 END COLLECTION
M  V30 END CTAB
M  END
>  <level_0>
6088

>  <index>
6088

>  <NO.>
6089

>  <Name>


>  <SMILES>
CC(C)/N=C1\C=C2C(=C[C@@H]1Nc1ccc(Cl)cc1)Nc1ccccc1N2c1ccc(Cl)cc1

>  <logBB>


>  <Class>
-1

>  <MW>
474.14

>  <nHBAcc>
4

>  <nHBDon>
2

>  <SLogP>
7.67

>  <TopoPSA>
39.66

>  <MMFF94 Energy>
107.9

$$$$
CC1(C)S[C@H]2[C@@H](NC(=O)[C@@H](NC(=O)Nc3cnc(Nc4ccc(S(N)(=O)=O)cc4)nc3O)c3ccc(O)cc3)C(=O)N2[C@@H]1C(=O)O
Actelion Java MolfileCreator 2.0

  0  0  0  0  0  0              0 V3000
M  V30 BEGIN CTAB
M  V30 COUNTS 74 78 0 0 0
M  V30 BEGIN ATOM
M  V30 1 S 4.8079 -7.4229 2.2795 0
M  V30 2 O 4.4519 -8.8211 2.2076 0
M  V30 3 O 4.8765 -6.7057 3.5311 0
M  V30 4 N 6.3327 -7.3023 1.5889 0
M  V30 5 C 3.8147 -6.5088 1.1389 0
M  V30 6 C 3.106 -7.1758 0.1416 0
M  V30 7 C 3.7083 -5.1252 1.2716 0
M  V30 8 C 2.3017 -6.4423 -0.7369 0
M  V30 9 C 2.9006 -4.4036 0.3844 0
M  V30 10 C 2.1827 -5.0442 -0.6331 0
M  V30 11 N 1.36 -4.377 -1.5478 0
M  V30 12 C 1.0333 -3.0403 -1.7566 0
M  V30 13 N 0.1345 -2.8206 -2.7309 0
M  V30 14 N 1.5772 -2.0556 -1.0244 0
M  V30 15 C -0.2055 -1.5404 -2.9298 0
M  V30 16 C 1.1977 -0.7804 -1.2802 0
M  V30 17 O -1.1441 -1.3673 -3.9071 0
M  V30 18 C 0.2806 -0.4483 -2.2448 0
M  V30 19 N -0.2167 0.8379 -2.5323 0
M  V30 20 C 0.2287 2.0129 -1.9896 0
M  V30 21 O 1.215 2.1436 -1.2796 0
M  V30 22 N -0.6194 3.056 -2.2585 0
M  V30 23 C -0.3969 4.3724 -1.6566 0 CFG=1
M  V30 24 C -1.0876 5.4285 -2.5043 0
M  V30 25 C -0.8561 4.4245 -0.1693 0
M  V30 26 C -0.3253 6.2457 -3.3564 0
M  V30 27 C -2.4855 5.5765 -2.501 0
M  V30 28 O -0.598 5.3619 0.584 0
M  V30 29 N -1.6765 3.3849 0.2225 0
M  V30 30 C -0.9411 7.1978 -4.1728 0
M  V30 31 C -3.0995 6.5267 -3.3189 0
M  V30 32 C -2.2218 3.2743 1.5973 0 CFG=1
M  V30 33 C -2.3246 7.3296 -4.1459 0
M  V30 34 C -3.279 2.154 1.7983 0
M  V30 35 C -1.3899 2.4704 2.6314 0 CFG=1
M  V30 36 O -2.9673 8.2436 -4.9266 0
M  V30 37 O -4.28 1.7787 1.2337 0
M  V30 38 N -2.5362 1.5732 2.7743 0
M  V30 39 S -0.0871 1.3289 2.0188 0
M  V30 40 C -2.3284 0.1391 2.8947 0 CFG=1
M  V30 41 C -0.8067 -0.0956 2.9825 0
M  V30 42 C -3.1157 -0.4225 4.0687 0
M  V30 43 C -0.3948 -1.4027 2.3011 0
M  V30 44 C -0.2324 -0.0366 4.404 0
M  V30 45 O -3.4281 0.1589 5.0956 0
M  V30 46 O -3.4217 -1.7277 3.9113 0
M  V30 47 H 6.6701 -8.2289 1.3283 0
M  V30 48 H 6.9583 -6.7952 2.2153 0
M  V30 49 H 3.17 -8.2565 0.0388 0
M  V30 50 H 4.2452 -4.5969 2.0564 0
M  V30 51 H 1.7598 -6.9807 -1.5115 0
M  V30 52 H 2.845 -3.3267 0.5161 0
M  V30 53 H 0.8623 -4.9494 -2.213 0
M  V30 54 H 1.6709 -0.0436 -0.6392 0
M  V30 55 H -1.276 -2.2913 -4.1897 0
M  V30 56 H -0.9487 0.8658 -3.2315 0
M  V30 57 H -1.3239 2.9704 -2.9757 0
M  V30 58 H 0.6846 4.5593 -1.6381 0
M  V30 59 H 0.7585 6.1473 -3.3873 0
M  V30 60 H -3.1125 4.9617 -1.8586 0
M  V30 61 H -1.8148 2.6328 -0.443 0
M  V30 62 H -0.3285 7.8202 -4.8175 0
M  V30 63 H -4.1798 6.6441 -3.307 0
M  V30 64 H -2.5836 4.2411 1.9687 0
M  V30 65 H -1.1476 3.0017 3.5564 0
M  V30 66 H -2.3021 8.7683 -5.4015 0
M  V30 67 H -2.7419 -0.3136 1.9825 0
M  V30 68 H -0.8105 -2.2652 2.8342 0
M  V30 69 H -0.7554 -1.4553 1.2674 0
M  V30 70 H 0.6944 -1.5249 2.2839 0
M  V30 71 H 0.8629 -0.0851 4.3967 0
M  V30 72 H -0.5816 -0.8853 5.0032 0
M  V30 73 H -0.5238 0.878 4.9326 0
M  V30 74 H -3.9285 -1.9539 4.7211 0
M  V30 END ATOM
M  V30 BEGIN BOND
M  V30 1 2 1 2
M  V30 2 2 1 3
M  V30 3 1 1 4
M  V30 4 1 1 5
M  V30 5 2 5 6
M  V30 6 1 5 7
M  V30 7 1 6 8
M  V30 8 2 7 9
M  V30 9 2 8 10
M  V30 10 1 10 11
M  V30 11 1 11 12
M  V30 12 2 12 13
M  V30 13 1 12 14
M  V30 14 1 13 15
M  V30 15 2 14 16
M  V30 16 1 15 17
M  V30 17 2 15 18
M  V30 18 1 18 19
M  V30 19 1 19 20
M  V30 20 2 20 21
M  V30 21 1 20 22
M  V30 22 1 22 23
M  V30 23 1 23 24
M  V30 24 1 23 25
M  V30 25 2 24 26
M  V30 26 1 24 27
M  V30 27 2 25 28
M  V30 28 1 25 29
M  V30 29 1 26 30
M  V30 30 2 27 31
M  V30 31 1 29 32
M  V30 32 2 30 33
M  V30 33 1 32 34
M  V30 34 1 32 35
M  V30 35 1 33 36
M  V30 36 2 34 37
M  V30 37 1 34 38
M  V30 38 1 35 39
M  V30 39 1 38 40
M  V30 40 1 39 41
M  V30 41 1 40 42
M  V30 42 1 41 43
M  V30 43 1 41 44
M  V30 44 2 42 45
M  V30 45 1 42 46
M  V30 46 1 9 10
M  V30 47 1 16 18
M  V30 48 1 31 33
M  V30 49 1 35 38
M  V30 50 1 40 41
M  V30 51 1 4 47
M  V30 52 1 4 48
M  V30 53 1 6 49
M  V30 54 1 7 50
M  V30 55 1 8 51
M  V30 56 1 9 52
M  V30 57 1 11 53
M  V30 58 1 16 54
M  V30 59 1 17 55
M  V30 60 1 19 56
M  V30 61 1 22 57
M  V30 62 1 23 58
M  V30 63 1 26 59
M  V30 64 1 27 60
M  V30 65 1 29 61
M  V30 66 1 30 62
M  V30 67 1 31 63
M  V30 68 1 32 64
M  V30 69 1 35 65
M  V30 70 1 36 66
M  V30 71 1 40 67
M  V30 72 1 43 68
M  V30 73 1 43 69
M  V30 74 1 43 70
M  V30 75 1 44 71
M  V30 76 1 44 72
M  V30 77 1 44 73
M  V30 78 1 46 74
M  V30 END BOND
M  V30 BEGIN COLLECTION
M  V30 MDLV30/STEABS ATOMS=(4 23 32 35 40)
M  V30 END COLLECTION
M  V30 END CTAB
M  END
>  <level_0>
6145

>  <index>
6145

>  <NO.>
6146

>  <Name>


>  <SMILES>
CC1(C)S[C@H]2[C@@H](NC(=O)[C@@H](NC(=O)Nc3cnc(Nc4ccc(S(N)(=O)=O)cc4)nc3O)c3ccc(O)cc3)C(=O)N2[C@@H]1C(=O)O

>  <logBB>


>  <Class>
-1

>  <MW>
672.14

>  <nHBAcc>
12

>  <nHBDon>
8

>  <SLogP>
0.77

>  <TopoPSA>
266.27

>  <MMFF94 Energy>
-141.96

$$$$
CC[C@@H](C)n1ncn(-c2ccc(N3CCN(c4ccc(OC[C@@H]5CO[C@@](CN6CN=CN6)(c6ccc(Cl)cc6Cl)O5)cc4)CC3)cc2)c1=O
Actelion Java MolfileCreator 2.0

  0  0  0  0  0  0              0 V3000
M  V30 BEGIN CTAB
M  V30 COUNTS 89 95 0 0 0
M  V30 BEGIN ATOM
M  V30 1 Cl -6.0703 -6.5571 -3.8007 0
M  V30 2 C -7.2872 -7.2275 -2.7686 0
M  V30 3 C -7.1592 -7.2957 -1.3654 0
M  V30 4 C -8.4282 -7.7234 -3.4147 0
M  V30 5 C -8.2164 -7.9014 -0.6484 0
M  V30 6 C -5.9302 -6.7764 -0.6035 0 CFG=1
M  V30 7 C -9.454 -8.301 -2.6758 0
M  V30 8 C -9.3526 -8.3955 -1.2945 0
M  V30 9 O -5.6015 -5.4556 -1.0822 0
M  V30 10 O -6.2574 -6.6792 0.8075 0
M  V30 11 C -4.7245 -7.7642 -0.7814 0
M  V30 12 Cl -10.8507 -8.907 -3.475 0
M  V30 13 C -6.0025 -4.5584 -0.0412 0 CFG=1
M  V30 14 C -5.8196 -5.3808 1.2076 0
M  V30 15 N -3.4765 -7.3793 -0.0682 0
M  V30 16 C -5.1838 -3.2719 -0.0926 0
M  V30 17 N -2.8767 -6.3154 -0.7467 0
M  V30 18 C -2.448 -8.4369 -0.2169 0
M  V30 19 O -3.8022 -3.5845 0.1153 0
M  V30 20 C -1.6998 -6.7216 -1.2654 0
M  V30 21 N -1.3233 -7.9447 -1.0584 0
M  V30 22 C -2.9255 -2.5398 0.1656 0
M  V30 23 C -3.2111 -1.2123 -0.1263 0
M  V30 24 C -1.6281 -2.8801 0.5358 0
M  V30 25 C -2.2018 -0.2398 -0.0428 0
M  V30 26 C -0.6288 -1.9017 0.618 0
M  V30 27 C -0.8856 -0.5534 0.331 0
M  V30 28 N 0.1011 0.4125 0.4113 0
M  V30 29 C -0.0022 1.6883 -0.3172 0
M  V30 30 C 1.3169 0.2117 1.2178 0
M  V30 31 C 1.3844 2.2983 -0.6314 0
M  V30 32 C 1.9272 1.5502 1.6973 0
M  V30 33 N 2.2055 2.4686 0.5799 0
M  V30 34 C 3.187 3.439 0.661 0
M  V30 35 C 3.6577 3.9165 1.8924 0
M  V30 36 C 3.7672 4.0051 -0.4825 0
M  V30 37 C 4.6521 4.9035 1.9813 0
M  V30 38 C 4.7625 4.9915 -0.4061 0
M  V30 39 C 5.2186 5.4523 0.8288 0
M  V30 40 N 6.2223 6.4329 0.913 0
M  V30 41 C 6.4971 7.4352 0.0019 0
M  V30 42 C 7.1166 6.6038 1.9103 0
M  V30 43 O 5.9321 7.6996 -1.049 0
M  V30 44 N 7.5845 8.1357 0.5529 0
M  V30 45 N 7.9408 7.5927 1.7655 0
M  V30 46 C 8.1967 9.3289 -0.0068 0 CFG=1
M  V30 47 C 7.4277 10.6026 0.3908 0
M  V30 48 C 9.6909 9.4159 0.3014 0
M  V30 49 C 7.4615 10.9414 1.8752 0
M  V30 50 H -8.5128 -7.6607 -4.4969 0
M  V30 51 H -8.1648 -7.9973 0.436 0
M  V30 52 H -10.1485 -8.852 -0.7112 0
M  V30 53 H -4.5053 -7.9173 -1.8453 0
M  V30 54 H -5.045 -8.7334 -0.3747 0
M  V30 55 H -7.0636 -4.3307 -0.2007 0
M  V30 56 H -6.423 -5.021 2.0454 0
M  V30 57 H -4.7784 -5.4567 1.5346 0
M  V30 58 H -5.3018 -2.8198 -1.0843 0
M  V30 59 H -5.5364 -2.5848 0.6854 0
M  V30 60 H -3.2674 -5.3751 -0.8056 0
M  V30 61 H -2.0531 -8.6858 0.7749 0
M  V30 62 H -2.8421 -9.3613 -0.6557 0
M  V30 63 H -1.1341 -5.9779 -1.8466 0
M  V30 64 H -4.2019 -0.8884 -0.4253 0
M  V30 65 H -1.3811 -3.9137 0.7665 0
M  V30 66 H -2.4798 0.788 -0.2601 0
M  V30 67 H 0.37 -2.2293 0.892 0
M  V30 68 H -0.5189 1.5492 -1.2746 0
M  V30 69 H -0.5858 2.3949 0.2855 0
M  V30 70 H 2.0549 -0.3353 0.6185 0
M  V30 71 H 1.097 -0.3819 2.1133 0
M  V30 72 H 1.2086 3.2631 -1.1223 0
M  V30 73 H 1.9203 1.6501 -1.3355 0
M  V30 74 H 1.2366 2.0393 2.3952 0
M  V30 75 H 2.8485 1.3098 2.2417 0
M  V30 76 H 3.2335 3.5477 2.8226 0
M  V30 77 H 3.4721 3.6723 -1.4741 0
M  V30 78 H 4.9425 5.2423 2.9718 0
M  V30 79 H 5.1748 5.375 -1.3367 0
M  V30 80 H 7.1139 5.9186 2.7671 0
M  V30 81 H 8.0948 9.2376 -1.0963 0
M  V30 82 H 6.3791 10.5028 0.0839 0
M  V30 83 H 7.8361 11.4535 -0.1682 0
M  V30 84 H 9.8897 9.4615 1.3768 0
M  V30 85 H 10.1328 10.3026 -0.1645 0
M  V30 86 H 10.2133 8.5351 -0.0879 0
M  V30 87 H 7.0192 10.1442 2.4794 0
M  V30 88 H 6.8857 11.8543 2.0606 0
M  V30 89 H 8.4821 11.1194 2.225 0
M  V30 END ATOM
M  V30 BEGIN BOND
M  V30 1 1 1 2
M  V30 2 2 2 3
M  V30 3 1 2 4
M  V30 4 1 3 5
M  V30 5 1 3 6
M  V30 6 2 4 7
M  V30 7 2 5 8
M  V30 8 1 6 9
M  V30 9 1 6 10
M  V30 10 1 6 11
M  V30 11 1 7 12
M  V30 12 1 9 13
M  V30 13 1 10 14
M  V30 14 1 11 15
M  V30 15 1 13 16
M  V30 16 1 15 17
M  V30 17 1 15 18
M  V30 18 1 16 19
M  V30 19 1 17 20
M  V30 20 1 18 21
M  V30 21 1 19 22
M  V30 22 2 22 23
M  V30 23 1 22 24
M  V30 24 1 23 25
M  V30 25 2 24 26
M  V30 26 2 25 27
M  V30 27 1 27 28
M  V30 28 1 28 29
M  V30 29 1 28 30
M  V30 30 1 29 31
M  V30 31 1 30 32
M  V30 32 1 31 33
M  V30 33 1 33 34
M  V30 34 2 34 35
M  V30 35 1 34 36
M  V30 36 1 35 37
M  V30 37 2 36 38
M  V30 38 2 37 39
M  V30 39 1 39 40
M  V30 40 1 40 41
M  V30 41 1 40 42
M  V30 42 2 41 43
M  V30 43 1 41 44
M  V30 44 2 42 45
M  V30 45 1 44 46
M  V30 46 1 46 47
M  V30 47 1 46 48
M  V30 48 1 47 49
M  V30 49 1 7 8
M  V30 50 1 13 14
M  V30 51 2 20 21
M  V30 52 1 26 27
M  V30 53 1 32 33
M  V30 54 1 38 39
M  V30 55 1 44 45
M  V30 56 1 4 50
M  V30 57 1 5 51
M  V30 58 1 8 52
M  V30 59 1 11 53
M  V30 60 1 11 54
M  V30 61 1 13 55
M  V30 62 1 14 56
M  V30 63 1 14 57
M  V30 64 1 16 58
M  V30 65 1 16 59
M  V30 66 1 17 60
M  V30 67 1 18 61
M  V30 68 1 18 62
M  V30 69 1 20 63
M  V30 70 1 23 64
M  V30 71 1 24 65
M  V30 72 1 25 66
M  V30 73 1 26 67
M  V30 74 1 29 68
M  V30 75 1 29 69
M  V30 76 1 30 70
M  V30 77 1 30 71
M  V30 78 1 31 72
M  V30 79 1 31 73
M  V30 80 1 32 74
M  V30 81 1 32 75
M  V30 82 1 35 76
M  V30 83 1 36 77
M  V30 84 1 37 78
M  V30 85 1 38 79
M  V30 86 1 42 80
M  V30 87 1 46 81
M  V30 88 1 47 82
M  V30 89 1 47 83
M  V30 90 1 48 84
M  V30 91 1 48 85
M  V30 92 1 48 86
M  V30 93 1 49 87
M  V30 94 1 49 88
M  V30 95 1 49 89
M  V30 END BOND
M  V30 BEGIN COLLECTION
M  V30 MDLV30/STEABS ATOMS=(3 6 13 46)
M  V30 END COLLECTION
M  V30 END CTAB
M  END
>  <level_0>
6288

>  <index>
6288

>  <NO.>
6289

>  <Name>


>  <SMILES>
CC[C@@H](C)n1ncn(-c2ccc(N3CCN(c4ccc(OC[C@@H]5CO[C@@](CN6CN=CN6)(c6ccc(Cl)cc6Cl)O5)cc4)CC3)cc2)c1=O

>  <logBB>


>  <Class>
-1

>  <MW>
706.25

>  <nHBAcc>
10

>  <nHBDon>
1

>  <SLogP>
5.09

>  <TopoPSA>
101.62

>  <MMFF94 Energy>
224.84

$$$$
CC[C@H](C)[C@H](NC(=O)[C@@H](CCC(=O)O)NC(=O)[C@H](CC(C)C)NC(=O)[C@@H]1CS[C@H]([C@H](N)[C@H](C)CC)N1)C(=O)NCCCC[C@@H]1NC(=O)[C@H](CC(N)=O)NC(=O)[C@@H](CC(=O)O)NC(=O)[C@H](Cc2c[nH]cn2)NC(=O)[C@@H](Cc2ccccc2)NC(=O)[C@H]([C@@H](C)CC)NC(=O)[C@@H](CCCN)NC1=O
Actelion Java MolfileCreator 2.0

  0  0  0  0  0  0              0 V3000
M  V30 BEGIN CTAB
M  V30 COUNTS 205 208 0 0 0
M  V30 BEGIN ATOM
M  V30 1 S -10.7789 4.5859 2.9236 0
M  V30 2 C -10.0283 3.4237 4.1039 0 CFG=1
M  V30 3 C -9.2097 5.0132 2.1265 0
M  V30 4 N -8.5756 3.7373 4.109 0
M  V30 5 C -10.6054 3.4957 5.5652 0 CFG=2
M  V30 6 C -8.2226 3.998 2.6814 0 CFG=2
M  V30 7 N -9.653 2.8408 6.5102 0
M  V30 8 C -12.0246 2.8918 5.7976 0 CFG=1
M  V30 9 C -6.7814 4.5141 2.5831 0
M  V30 10 C -13.205 3.7385 5.2745 0
M  V30 11 C -12.1722 1.4597 5.26 0
M  V30 12 O -6.4114 5.3797 1.793 0
M  V30 13 N -5.9047 3.8564 3.4188 0
M  V30 14 C -13.2584 5.1514 5.838 0
M  V30 15 C -4.4656 4.0914 3.3963 0 CFG=2
M  V30 16 C -3.915 3.2213 2.2428 0
M  V30 17 C -3.8048 3.7279 4.7328 0
M  V30 18 O -3.3412 2.1472 2.4103 0
M  V30 19 N -4.2112 3.7222 0.9887 0
M  V30 20 C -3.9451 4.8028 5.8318 0
M  V30 21 C -4.054 2.9062 -0.2014 0 CFG=1
M  V30 22 C -5.393 5.0593 6.2504 0
M  V30 23 C -3.1247 4.3903 7.0582 0
M  V30 24 C -5.3179 2.0364 -0.3851 0
M  V30 25 C -3.7963 3.76 -1.451 0
M  V30 26 O -6.4006 2.298 0.1351 0
M  V30 27 N -5.1166 0.9391 -1.1963 0
M  V30 28 C -2.3054 3.8532 -1.7815 0
M  V30 29 C -6.1482 -0.0819 -1.4229 0 CFG=2
M  V30 30 C -1.7424 2.5165 -2.1991 0
M  V30 31 C -5.5853 -1.4438 -0.9218 0
M  V30 32 C -6.6066 -0.153 -2.9065 0 CFG=2
M  V30 33 O -2.3556 1.459 -2.2372 0
M  V30 34 O -0.4359 2.6134 -2.5021 0
M  V30 35 O -5.9831 -2.5348 -1.3203 0
M  V30 36 N -4.6648 -1.3286 0.102 0
M  V30 37 C -6.6299 1.2365 -3.5867 0
M  V30 38 C -7.991 -0.8169 -2.9967 0
M  V30 39 C -3.9981 -2.4613 0.7016 0
M  V30 40 C -7.0768 1.2121 -5.043 0
M  V30 41 C -3.0311 -3.1729 -0.2487 0
M  V30 42 C -2.0548 -2.2173 -0.9414 0
M  V30 43 C -1.0231 -2.98 -1.7783 0
M  V30 44 C -0.2431 -2.0577 -2.7236 0 CFG=2
M  V30 45 N 0.8053 -2.7711 -3.4528 0
M  V30 46 C 0.4709 -0.8677 -2.0551 0
M  V30 47 C 0.5372 -3.6079 -4.5121 0
M  V30 48 O 0.5018 0.2331 -2.6058 0
M  V30 49 N 1.1908 -1.1768 -0.9168 0
M  V30 50 O -0.6037 -3.8235 -4.9171 0
M  V30 51 C 1.7935 -4.1401 -5.2337 0 CFG=1
M  V30 52 C 2.3993 -0.4622 -0.4625 0 CFG=1
M  V30 53 N 2.9188 -4.2478 -4.3074 0
M  V30 54 C 1.5192 -5.4477 -5.978 0
M  V30 55 C 3.5598 -1.2361 -1.1361 0
M  V30 56 C 2.4176 1.0386 -0.7808 0
M  V30 57 C 4.2226 -3.9969 -4.6717 0
M  V30 58 C 1.0751 -6.5714 -5.0646 0
M  V30 59 O 3.4661 -1.6711 -2.2911 0
M  V30 60 N 4.7 -1.5167 -0.4469 0
M  V30 61 C 3.4682 1.8382 -0.009 0
M  V30 62 O 4.5533 -3.6495 -5.8031 0
M  V30 63 C 5.2561 -4.2451 -3.5527 0 CFG=2
M  V30 64 O 1.8373 -7.4354 -4.6363 0
M  V30 65 N -0.2417 -6.5755 -4.7259 0
M  V30 66 C 5.0658 -1.2118 0.948 0 CFG=2
M  V30 67 C 3.3494 3.3314 -0.3196 0
M  V30 68 N 6.428 -3.404 -3.8019 0
M  V30 69 C 5.6413 -5.7234 -3.4969 0
M  V30 70 C 6.5672 -0.8359 1.0487 0
M  V30 71 C 4.6384 -2.3569 1.9001 0 CFG=2
M  V30 72 N 4.373 4.0753 0.3985 0
M  V30 73 C 7.2193 -2.9512 -2.7759 0
M  V30 74 C 4.4196 -6.5342 -3.1843 0
M  V30 75 O 6.9564 0.0269 1.8298 0
M  V30 76 N 7.414 -1.6136 0.2999 0
M  V30 77 C 4.8547 -2.0284 3.3927 0
M  V30 78 C 5.3079 -3.6999 1.5787 0
M  V30 79 O 6.9654 -3.2452 -1.6074 0
M  V30 80 C 8.4117 -2.068 -3.1839 0 CFG=1
M  V30 81 O 3.5515 -6.2125 -2.3853 0
M  V30 82 O 4.3144 -7.6186 -3.9689 0
M  V30 83 C 8.8013 -1.3025 -0.0513 0 CFG=1
M  V30 84 C 4.0851 -0.8057 3.8728 0
M  V30 85 N 8.4583 -0.7564 -2.5099 0
M  V30 86 C 9.7067 -2.8866 -3.1262 0
M  V30 87 C 8.7483 -0.3294 -1.2462 0
M  V30 88 C 9.6484 -0.7693 1.1135 0
M  V30 89 C 10.8144 -2.23 -3.8687 0
M  V30 90 O 8.8696 0.891 -1.1039 0
M  V30 91 C 11.1337 -0.894 0.8471 0
M  V30 92 N 10.7736 -2.1404 -5.2399 0
M  V30 93 C 11.9597 -1.6395 -3.3837 0
M  V30 94 C 11.7978 -2.109 1.0638 0
M  V30 95 C 11.8623 0.2044 0.372 0
M  V30 96 C 11.8713 -1.5045 -5.5807 0
M  V30 97 N 12.6211 -1.1778 -4.4869 0
M  V30 98 C 13.1673 -2.2189 0.8175 0
M  V30 99 C 13.2323 0.0938 0.1308 0
M  V30 100 C 13.8847 -1.1172 0.3539 0
M  V30 101 H -10.143 2.4081 3.7105 0
M  V30 102 H -8.9495 6.0431 2.3921 0
M  V30 103 H -9.299 4.9423 1.0386 0
M  V30 104 H -8.482 4.6265 4.6078 0
M  V30 105 H -10.6115 4.5461 5.8789 0
M  V30 106 H -8.2681 3.0547 2.1214 0
M  V30 107 H -8.7108 3.1169 6.2188 0
M  V30 108 H -9.6678 1.8334 6.3551 0
M  V30 109 H -12.1678 2.8292 6.8871 0
M  V30 110 H -14.1405 3.2378 5.5582 0
M  V30 111 H -13.2124 3.7744 4.1814 0
M  V30 112 H -11.3827 0.7992 5.6287 0
M  V30 113 H -13.1274 1.0291 5.5812 0
M  V30 114 H -12.1572 1.4369 4.1658 0
M  V30 115 H -6.2886 3.0999 3.9779 0
M  V30 116 H -14.1908 5.6391 5.5351 0
M  V30 117 H -12.434 5.7686 5.4719 0
M  V30 118 H -13.2247 5.1396 6.932 0
M  V30 119 H -4.2701 5.1421 3.1497 0
M  V30 120 H -4.1968 2.7695 5.0994 0
M  V30 121 H -2.7317 3.5714 4.5581 0
M  V30 122 H -4.8722 4.5006 0.951 0
M  V30 123 H -3.5273 5.7447 5.4541 0
M  V30 124 H -3.2276 2.2115 -0.0145 0
M  V30 125 H -5.9584 5.543 5.449 0
M  V30 126 H -5.9012 4.1279 6.5215 0
M  V30 127 H -5.4352 5.73 7.1158 0
M  V30 128 H -2.0721 4.2458 6.7929 0
M  V30 129 H -3.4982 3.4552 7.4894 0
M  V30 130 H -3.1676 5.1625 7.8338 0
M  V30 131 H -4.1903 4.7741 -1.3079 0
M  V30 132 H -4.3205 3.3479 -2.3216 0
M  V30 133 H -4.202 0.8009 -1.6305 0
M  V30 134 H -2.1671 4.5528 -2.613 0
M  V30 135 H -1.747 4.2172 -0.9123 0
M  V30 136 H -7.0087 0.1474 -0.7824 0
M  V30 137 H -5.8955 -0.7815 -3.4598 0
M  V30 138 H -0.1079 1.6929 -2.6891 0
M  V30 139 H -4.4676 -0.3986 0.455 0
M  V30 140 H -7.2795 1.9188 -3.0249 0
M  V30 141 H -5.6217 1.6656 -3.5704 0
M  V30 142 H -8.2546 -1.0422 -4.0348 0
M  V30 143 H -8.0305 -1.7637 -2.4519 0
M  V30 144 H -8.7667 -0.1635 -2.5822 0
M  V30 145 H -4.76 -3.1659 1.0525 0
M  V30 146 H -3.4558 -2.0858 1.5759 0
M  V30 147 H -6.9343 2.1998 -5.4939 0
M  V30 148 H -6.4939 0.4887 -5.6214 0
M  V30 149 H -8.1376 0.962 -5.1352 0
M  V30 150 H -3.6 -3.7139 -1.0144 0
M  V30 151 H -2.4749 -3.9276 0.3202 0
M  V30 152 H -1.5467 -1.6045 -0.188 0
M  V30 153 H -2.6114 -1.5345 -1.5941 0
M  V30 154 H -1.5378 -3.7419 -2.3775 0
M  V30 155 H -0.3469 -3.5334 -1.1156 0
M  V30 156 H -0.9412 -1.6429 -3.4623 0
M  V30 157 H 1.7813 -2.5126 -3.2833 0
M  V30 158 H 1.0877 -2.1121 -0.5463 0
M  V30 159 H 2.0539 -3.3756 -5.9771 0
M  V30 160 H 2.421 -0.6203 0.6192 0
M  V30 161 H 2.7284 -4.599 -3.3683 0
M  V30 162 H 2.4198 -5.7838 -6.5057 0
M  V30 163 H 0.7431 -5.2959 -6.7384 0
M  V30 164 H 1.4327 1.4626 -0.5469 0
M  V30 165 H 2.5981 1.1939 -1.8516 0
M  V30 166 H 5.3772 -2.0215 -1.0097 0
M  V30 167 H 3.3356 1.6767 1.0676 0
M  V30 168 H 4.4713 1.4894 -0.2805 0
M  V30 169 H 4.811 -3.9355 -2.5999 0
M  V30 170 H -0.5981 -7.3076 -4.1264 0
M  V30 171 H -0.8733 -5.8186 -4.9857 0
M  V30 172 H 4.519 -0.3095 1.222 0
M  V30 173 H 2.3595 3.702 -0.031 0
M  V30 174 H 3.47 3.5037 -1.3945 0
M  V30 175 H 6.5837 -3.1092 -4.7643 0
M  V30 176 H 6.0574 -6.0397 -4.461 0
M  V30 177 H 6.394 -5.9182 -2.7259 0
M  V30 178 H 3.5597 -2.5129 1.7566 0
M  V30 179 H 4.2625 5.0726 0.2223 0
M  V30 180 H 4.2714 3.9438 1.4035 0
M  V30 181 H 7.0349 -2.4149 -0.1965 0
M  V30 182 H 4.5286 -2.8867 3.9941 0
M  V30 183 H 5.9214 -1.8916 3.6053 0
M  V30 184 H 4.8774 -4.4968 2.1956 0
M  V30 185 H 5.156 -3.9852 0.5333 0
M  V30 186 H 6.383 -3.6769 1.7813 0
M  V30 187 H 8.2369 -1.7971 -4.2349 0
M  V30 188 H 3.3505 -7.8634 -3.9719 0
M  V30 189 H 9.2227 -2.2517 -0.3854 0
M  V30 190 H 4.1743 -0.7109 4.96 0
M  V30 191 H 4.474 0.1163 3.4318 0
M  V30 192 H 3.0218 -0.8881 3.6267 0
M  V30 193 H 8.4259 0.0392 -3.1384 0
M  V30 194 H 9.5371 -3.8744 -3.5749 0
M  V30 195 H 10.0184 -3.0808 -2.0967 0
M  V30 196 H 9.4125 0.2776 1.3401 0
M  V30 197 H 9.4203 -1.3299 2.03 0
M  V30 198 H 12.3442 -1.5043 -2.3826 0
M  V30 199 H 11.2545 -2.9734 1.439 0
M  V30 200 H 11.3637 1.1569 0.1944 0
M  V30 201 H 12.1737 -1.2535 -6.5888 0
M  V30 202 H 13.5019 -0.682 -4.4961 0
M  V30 203 H 13.677 -3.1617 0.998 0
M  V30 204 H 13.7888 0.957 -0.2248 0
M  V30 205 H 14.9531 -1.2007 0.1738 0
M  V30 END ATOM
M  V30 BEGIN BOND
M  V30 1 1 1 2
M  V30 2 1 1 3
M  V30 3 1 2 4
M  V30 4 1 2 5
M  V30 5 1 3 6
M  V30 6 1 5 7
M  V30 7 1 5 8
M  V30 8 1 6 9
M  V30 9 1 8 10
M  V30 10 1 8 11
M  V30 11 2 9 12
M  V30 12 1 9 13
M  V30 13 1 10 14
M  V30 14 1 13 15
M  V30 15 1 15 16
M  V30 16 1 15 17
M  V30 17 2 16 18
M  V30 18 1 16 19
M  V30 19 1 17 20
M  V30 20 1 19 21
M  V30 21 1 20 22
M  V30 22 1 20 23
M  V30 23 1 21 24
M  V30 24 1 21 25
M  V30 25 2 24 26
M  V30 26 1 24 27
M  V30 27 1 25 28
M  V30 28 1 27 29
M  V30 29 1 28 30
M  V30 30 1 29 31
M  V30 31 1 29 32
M  V30 32 2 30 33
M  V30 33 1 30 34
M  V30 34 2 31 35
M  V30 35 1 31 36
M  V30 36 1 32 37
M  V30 37 1 32 38
M  V30 38 1 36 39
M  V30 39 1 37 40
M  V30 40 1 39 41
M  V30 41 1 41 42
M  V30 42 1 42 43
M  V30 43 1 43 44
M  V30 44 1 44 45
M  V30 45 1 44 46
M  V30 46 1 45 47
M  V30 47 2 46 48
M  V30 48 1 46 49
M  V30 49 2 47 50
M  V30 50 1 47 51
M  V30 51 1 49 52
M  V30 52 1 51 53
M  V30 53 1 51 54
M  V30 54 1 52 55
M  V30 55 1 52 56
M  V30 56 1 53 57
M  V30 57 1 54 58
M  V30 58 2 55 59
M  V30 59 1 55 60
M  V30 60 1 56 61
M  V30 61 2 57 62
M  V30 62 1 57 63
M  V30 63 2 58 64
M  V30 64 1 58 65
M  V30 65 1 60 66
M  V30 66 1 61 67
M  V30 67 1 63 68
M  V30 68 1 63 69
M  V30 69 1 66 70
M  V30 70 1 66 71
M  V30 71 1 67 72
M  V30 72 1 68 73
M  V30 73 1 69 74
M  V30 74 2 70 75
M  V30 75 1 70 76
M  V30 76 1 71 77
M  V30 77 1 71 78
M  V30 78 2 73 79
M  V30 79 1 73 80
M  V30 80 2 74 81
M  V30 81 1 74 82
M  V30 82 1 76 83
M  V30 83 1 77 84
M  V30 84 1 80 85
M  V30 85 1 80 86
M  V30 86 1 83 87
M  V30 87 1 83 88
M  V30 88 1 86 89
M  V30 89 2 87 90
M  V30 90 1 88 91
M  V30 91 1 89 92
M  V30 92 2 89 93
M  V30 93 2 91 94
M  V30 94 1 91 95
M  V30 95 2 92 96
M  V30 96 1 93 97
M  V30 97 1 94 98
M  V30 98 2 95 99
M  V30 99 2 98 100
M  V30 100 1 4 6
M  V30 101 1 85 87
M  V30 102 1 96 97
M  V30 103 1 99 100
M  V30 104 1 2 101
M  V30 105 1 3 102
M  V30 106 1 3 103
M  V30 107 1 4 104
M  V30 108 1 5 105
M  V30 109 1 6 106
M  V30 110 1 7 107
M  V30 111 1 7 108
M  V30 112 1 8 109
M  V30 113 1 10 110
M  V30 114 1 10 111
M  V30 115 1 11 112
M  V30 116 1 11 113
M  V30 117 1 11 114
M  V30 118 1 13 115
M  V30 119 1 14 116
M  V30 120 1 14 117
M  V30 121 1 14 118
M  V30 122 1 15 119
M  V30 123 1 17 120
M  V30 124 1 17 121
M  V30 125 1 19 122
M  V30 126 1 20 123
M  V30 127 1 21 124
M  V30 128 1 22 125
M  V30 129 1 22 126
M  V30 130 1 22 127
M  V30 131 1 23 128
M  V30 132 1 23 129
M  V30 133 1 23 130
M  V30 134 1 25 131
M  V30 135 1 25 132
M  V30 136 1 27 133
M  V30 137 1 28 134
M  V30 138 1 28 135
M  V30 139 1 29 136
M  V30 140 1 32 137
M  V30 141 1 34 138
M  V30 142 1 36 139
M  V30 143 1 37 140
M  V30 144 1 37 141
M  V30 145 1 38 142
M  V30 146 1 38 143
M  V30 147 1 38 144
M  V30 148 1 39 145
M  V30 149 1 39 146
M  V30 150 1 40 147
M  V30 151 1 40 148
M  V30 152 1 40 149
M  V30 153 1 41 150
M  V30 154 1 41 151
M  V30 155 1 42 152
M  V30 156 1 42 153
M  V30 157 1 43 154
M  V30 158 1 43 155
M  V30 159 1 44 156
M  V30 160 1 45 157
M  V30 161 1 49 158
M  V30 162 1 51 159
M  V30 163 1 52 160
M  V30 164 1 53 161
M  V30 165 1 54 162
M  V30 166 1 54 163
M  V30 167 1 56 164
M  V30 168 1 56 165
M  V30 169 1 60 166
M  V30 170 1 61 167
M  V30 171 1 61 168
M  V30 172 1 63 169
M  V30 173 1 65 170
M  V30 174 1 65 171
M  V30 175 1 66 172
M  V30 176 1 67 173
M  V30 177 1 67 174
M  V30 178 1 68 175
M  V30 179 1 69 176
M  V30 180 1 69 177
M  V30 181 1 71 178
M  V30 182 1 72 179
M  V30 183 1 72 180
M  V30 184 1 76 181
M  V30 185 1 77 182
M  V30 186 1 77 183
M  V30 187 1 78 184
M  V30 188 1 78 185
M  V30 189 1 78 186
M  V30 190 1 80 187
M  V30 191 1 82 188
M  V30 192 1 83 189
M  V30 193 1 84 190
M  V30 194 1 84 191
M  V30 195 1 84 192
M  V30 196 1 85 193
M  V30 197 1 86 194
M  V30 198 1 86 195
M  V30 199 1 88 196
M  V30 200 1 88 197
M  V30 201 1 93 198
M  V30 202 1 94 199
M  V30 203 1 95 200
M  V30 204 1 96 201
M  V30 205 1 97 202
M  V30 206 1 98 203
M  V30 207 1 99 204
M  V30 208 1 100 205
M  V30 END BOND
M  V30 BEGIN COLLECTION
M  V30 MDLV30/STEABS ATOMS=(16 2 5 6 8 15 21 29 32 44 51 52 63 66 71 80 83)
M  V30 END COLLECTION
M  V30 END CTAB
M  END
>  <level_0>
6316

>  <index>
6316

>  <NO.>
6317

>  <Name>


>  <SMILES>
CC[C@H](C)[C@H](NC(=O)[C@@H](CCC(=O)O)NC(=O)[C@H](CC(C)C)NC(=O)[C@@H]1CS[C@H]([C@H](N)[C@H](C)CC)N1)C(=O)NCCCC[C@@H]1NC(=O)[C@H](CC(N)=O)NC(=O)[C@@H](CC(=O)O)NC(=O)[C@H](Cc2c[nH]cn2)NC(=O)[C@@H](Cc2ccccc2)NC(=O)[C@H]([C@@H](C)CC)NC(=O)[C@@H](CCCN)NC1=O

>  <logBB>


>  <Class>
-1

>  <MW>
1423.76

>  <nHBAcc>
19

>  <nHBDon>
18

>  <SLogP>
-2.16

>  <TopoPSA>
530.54

>  <MMFF94 Energy>
78.011

$$$$
CN(C)[C@H]1C(O)=C(C(N)=O)C(=O)[C@@]2(O)C(O)=C3C(=O)c4c(O)cccc4[C@H](O)[C@@H]3C[C@H]12
Actelion Java MolfileCreator 2.0

  0  0  0  0  0  0              0 V3000
M  V30 BEGIN CTAB
M  V30 COUNTS 53 56 0 0 0
M  V30 BEGIN ATOM
M  V30 1 O 1.6124 1.9352 -3.1461 0
M  V30 2 C 1.7574 0.9106 -2.4786 0
M  V30 3 C 2.945 0.0489 -2.6885 0
M  V30 4 C 0.7787 0.5335 -1.4128 0
M  V30 5 C 4.0309 0.5157 -3.4432 0
M  V30 6 C 2.9826 -1.2423 -2.1372 0
M  V30 7 C -0.3597 1.2426 -1.2605 0
M  V30 8 C 1.1137 -0.668 -0.5588 0 CFG=2
M  V30 9 O 4.0645 1.7552 -4.0241 0
M  V30 10 C 5.1535 -0.284 -3.6367 0
M  V30 11 C 4.112 -2.048 -2.3555 0
M  V30 12 C 1.8005 -1.7803 -1.3783 0 CFG=1
M  V30 13 O -0.7492 2.2452 -2.1381 0
M  V30 14 C -1.3877 0.9333 -0.1875 0 CFG=2
M  V30 15 C -0.1229 -1.2164 0.1872 0
M  V30 16 C 5.194 -1.5665 -3.0939 0
M  V30 17 O 0.9206 -2.3432 -2.3444 0
M  V30 18 O -2.52 0.4133 -0.888 0
M  V30 19 C -1.7982 2.1696 0.65 0
M  V30 20 C -0.8865 -0.0733 0.8687 0 CFG=2
M  V30 21 O -1.3207 3.296 0.507 0
M  V30 22 C -2.8292 1.925 1.7055 0
M  V30 23 C -2.086 -0.5303 1.7483 0 CFG=2
M  V30 24 C -2.9697 0.6621 2.1734 0
M  V30 25 C -3.6987 3.0171 2.2276 0
M  V30 26 N -1.7253 -1.3199 2.9444 0
M  V30 27 O -3.9609 0.3128 3.0927 0
M  V30 28 O -4.6113 2.802 3.0222 0
M  V30 29 N -3.4398 4.2755 1.792 0
M  V30 30 C -0.5634 -0.8995 3.7031 0
M  V30 31 C -1.8359 -2.7594 2.7884 0
M  V30 32 H 1.832 -0.3188 0.1986 0
M  V30 33 H 3.1803 2.1683 -3.9111 0
M  V30 34 H 5.9904 0.0896 -4.2211 0
M  V30 35 H 4.1504 -3.062 -1.9624 0
M  V30 36 H 2.127 -2.5804 -0.7021 0
M  V30 37 H 0.0063 2.4465 -2.7369 0
M  V30 38 H -0.7979 -1.7487 -0.4935 0
M  V30 39 H 0.2301 -1.9445 0.9224 0
M  V30 40 H 6.065 -2.1961 -3.2594 0
M  V30 41 H 0.3547 -2.9957 -1.8985 0
M  V30 42 H -2.639 0.9975 -1.6648 0
M  V30 43 H -0.1632 0.4545 1.5097 0
M  V30 44 H -2.7464 -1.1481 1.1225 0
M  V30 45 H -4.4779 1.1123 3.3384 0
M  V30 46 H -2.6558 4.4811 1.1746 0
M  V30 47 H -4.0073 5.0405 2.1289 0
M  V30 48 H 0.3761 -1.1464 3.1988 0
M  V30 49 H -0.5834 0.1785 3.8959 0
M  V30 50 H -0.5511 -1.3851 4.6855 0
M  V30 51 H -1.0612 -3.1766 2.1405 0
M  V30 52 H -2.8132 -3.0363 2.3777 0
M  V30 53 H -1.763 -3.2588 3.7612 0
M  V30 END ATOM
M  V30 BEGIN BOND
M  V30 1 2 1 2
M  V30 2 1 2 3
M  V30 3 1 2 4
M  V30 4 2 3 5
M  V30 5 1 3 6
M  V30 6 2 4 7
M  V30 7 1 4 8
M  V30 8 1 5 9
M  V30 9 1 5 10
M  V30 10 2 6 11
M  V30 11 1 6 12
M  V30 12 1 7 13
M  V30 13 1 7 14
M  V30 14 1 8 15
M  V30 15 2 10 16
M  V30 16 1 12 17
M  V30 17 1 14 18
M  V30 18 1 14 19
M  V30 19 1 14 20
M  V30 20 2 19 21
M  V30 21 1 19 22
M  V30 22 1 20 23
M  V30 23 2 22 24
M  V30 24 1 22 25
M  V30 25 1 23 26
M  V30 26 1 24 27
M  V30 27 2 25 28
M  V30 28 1 25 29
M  V30 29 1 26 30
M  V30 30 1 26 31
M  V30 31 1 8 12
M  V30 32 1 11 16
M  V30 33 1 15 20
M  V30 34 1 23 24
M  V30 35 1 8 32
M  V30 36 1 9 33
M  V30 37 1 10 34
M  V30 38 1 11 35
M  V30 39 1 12 36
M  V30 40 1 13 37
M  V30 41 1 15 38
M  V30 42 1 15 39
M  V30 43 1 16 40
M  V30 44 1 17 41
M  V30 45 1 18 42
M  V30 46 1 20 43
M  V30 47 1 23 44
M  V30 48 1 27 45
M  V30 49 1 29 46
M  V30 50 1 29 47
M  V30 51 1 30 48
M  V30 52 1 30 49
M  V30 53 1 30 50
M  V30 54 1 31 51
M  V30 55 1 31 52
M  V30 56 1 31 53
M  V30 END BOND
M  V30 BEGIN COLLECTION
M  V30 MDLV30/STEABS ATOMS=(5 8 12 14 20 23)
M  V30 END COLLECTION
M  V30 END CTAB
M  END
>  <level_0>
6368

>  <index>
6368

>  <NO.>
6369

>  <Name>


>  <SMILES>
CN(C)[C@H]1C(O)=C(C(N)=O)C(=O)[C@@]2(O)C(O)=C3C(=O)c4c(O)cccc4[C@H](O)[C@@H]3C[C@H]12

>  <logBB>


>  <Class>
-1

>  <MW>
430.14

>  <nHBAcc>
9

>  <nHBDon>
6

>  <SLogP>
-0.39

>  <TopoPSA>
181.62

>  <MMFF94 Energy>
84.361

$$$$
CN(C)[C@H]1C(O)=C(C(N)=O)C(=O)[C@]2(O)C(O)=C3C(=O)c4c(O)ccc([N+](=O)[O-])c4C[C@H]3C[C@@H]12
Actelion Java MolfileCreator 2.0

  0  0  0  0  0  0              0 V3000
M  V30 BEGIN CTAB
M  V30 COUNTS 54 57 0 0 0
M  V30 BEGIN ATOM
M  V30 1 O 3.646 0.0809 -4.3764 0
M  V30 2 N 4.0656 -0.9773 -3.892 0 CHG=1
M  V30 3 O 5.2482 -1.2371 -3.6356 0 CHG=-1
M  V30 4 C 3.0846 -2.0183 -3.6114 0
M  V30 5 C 1.9513 -1.7575 -2.8148 0
M  V30 6 C 3.3183 -3.2772 -4.1807 0
M  V30 7 C 1.0054 -2.7928 -2.6573 0
M  V30 8 C 1.7001 -0.4207 -2.1595 0
M  V30 9 C 2.3999 -4.3023 -3.9737 0
M  V30 10 C -0.2687 -2.5129 -1.9295 0
M  V30 11 C 1.2488 -4.0594 -3.2215 0
M  V30 12 C 1.0032 -0.595 -0.8027 0 CFG=2
M  V30 13 O -1.298 -3.1487 -2.1381 0
M  V30 14 C -0.276 -1.3781 -0.9501 0
M  V30 15 O 0.3807 -5.0918 -3.0094 0
M  V30 16 C 0.7784 0.7848 -0.1549 0
M  V30 17 C -1.4126 -1.0581 -0.2914 0
M  V30 18 C -0.1198 0.64 1.0798 0 CFG=2
M  V30 19 O -2.6333 -1.6641 -0.5635 0
M  V30 20 C -1.5073 0.0956 0.7004 0 CFG=1
M  V30 21 C -0.1777 1.8964 1.9883 0 CFG=1
M  V30 22 O -2.3303 1.0603 0.0518 0
M  V30 23 C -2.1666 -0.2837 2.0498 0
M  V30 24 N -0.1409 3.1677 1.2278 0
M  V30 25 C -1.2449 1.7597 3.0753 0
M  V30 26 O -2.6811 -1.3803 2.2803 0
M  V30 27 C -2.1637 0.7651 3.1253 0
M  V30 28 C 0.8799 4.0788 1.7565 0
M  V30 29 C -1.4114 3.8872 1.1286 0
M  V30 30 O -1.1285 2.7323 4.0684 0
M  V30 31 C -3.1199 0.7153 4.2719 0
M  V30 32 O -3.1576 1.5986 5.1266 0
M  V30 33 N -3.9537 -0.3513 4.3426 0
M  V30 34 H 4.208 -3.4638 -4.7801 0
M  V30 35 H 2.6445 0.1047 -1.9781 0
M  V30 36 H 1.0975 0.1955 -2.8389 0
M  V30 37 H 2.5937 -5.2819 -4.4031 0
M  V30 38 H 1.6633 -1.1768 -0.1422 0
M  V30 39 H 0.6005 -5.8476 -3.5775 0
M  V30 40 H 1.7492 1.2096 0.1291 0
M  V30 41 H 0.3226 1.4736 -0.8781 0
M  V30 42 H 0.3657 -0.1342 1.7007 0
M  V30 43 H -2.4741 -2.4217 -1.1757 0
M  V30 44 H 0.7726 1.837 2.5432 0
M  V30 45 H -3.0632 0.5519 -0.3506 0
M  V30 46 H 0.6739 4.383 2.7886 0
M  V30 47 H 1.8704 3.6112 1.7222 0
M  V30 48 H 0.9485 4.9822 1.1394 0
M  V30 49 H -1.7247 4.3307 2.0803 0
M  V30 50 H -2.2251 3.2611 0.7635 0
M  V30 51 H -1.3166 4.7048 0.4039 0
M  V30 52 H -1.857 2.6189 4.7217 0
M  V30 53 H -3.9015 -1.1176 3.6721 0
M  V30 54 H -4.6117 -0.4174 5.1063 0
M  V30 END ATOM
M  V30 BEGIN BOND
M  V30 1 2 1 2
M  V30 2 1 2 3
M  V30 3 1 2 4
M  V30 4 2 4 5
M  V30 5 1 4 6
M  V30 6 1 5 7
M  V30 7 1 5 8
M  V30 8 2 6 9
M  V30 9 1 7 10
M  V30 10 2 7 11
M  V30 11 1 8 12
M  V30 12 2 10 13
M  V30 13 1 10 14
M  V30 14 1 11 15
M  V30 15 1 12 16
M  V30 16 2 14 17
M  V30 17 1 16 18
M  V30 18 1 17 19
M  V30 19 1 17 20
M  V30 20 1 18 21
M  V30 21 1 20 22
M  V30 22 1 20 23
M  V30 23 1 21 24
M  V30 24 1 21 25
M  V30 25 2 23 26
M  V30 26 1 23 27
M  V30 27 1 24 28
M  V30 28 1 24 29
M  V30 29 1 25 30
M  V30 30 1 27 31
M  V30 31 2 31 32
M  V30 32 1 31 33
M  V30 33 1 9 11
M  V30 34 1 12 14
M  V30 35 1 18 20
M  V30 36 2 25 27
M  V30 37 1 6 34
M  V30 38 1 8 35
M  V30 39 1 8 36
M  V30 40 1 9 37
M  V30 41 1 12 38
M  V30 42 1 15 39
M  V30 43 1 16 40
M  V30 44 1 16 41
M  V30 45 1 18 42
M  V30 46 1 19 43
M  V30 47 1 21 44
M  V30 48 1 22 45
M  V30 49 1 28 46
M  V30 50 1 28 47
M  V30 51 1 28 48
M  V30 52 1 29 49
M  V30 53 1 29 50
M  V30 54 1 29 51
M  V30 55 1 30 52
M  V30 56 1 33 53
M  V30 57 1 33 54
M  V30 END BOND
M  V30 BEGIN COLLECTION
M  V30 MDLV30/STEABS ATOMS=(4 12 18 20 21)
M  V30 END COLLECTION
M  V30 END CTAB
M  END
>  <level_0>
6369

>  <index>
6369

>  <NO.>
6370

>  <Name>


>  <SMILES>
CN(C)[C@H]1C(O)=C(C(N)=O)C(=O)[C@]2(O)C(O)=C3C(=O)c4c(O)ccc([N+](=O)[O-])c4C[C@H]3C[C@@H]12

>  <logBB>


>  <Class>
-1

>  <MW>
459.13

>  <nHBAcc>
10

>  <nHBDon>
5

>  <SLogP>
0.03

>  <TopoPSA>
204.53

>  <MMFF94 Energy>
119.87

$$$$
CN(C)c1cc(C2=N[C@H](N)NN2)ccn1
Actelion Java MolfileCreator 2.0

  0  0  0  0  0  0              0 V3000
M  V30 BEGIN CTAB
M  V30 COUNTS 29 30 0 0 0
M  V30 BEGIN ATOM
M  V30 1 N -0.6242 -0.312 2.5768 0
M  V30 2 C -0.032 0.6472 1.8286 0
M  V30 3 C -1.0881 -1.4321 1.9811 0
M  V30 4 N 0.4238 1.7861 2.4722 0
M  V30 5 C 0.1093 0.4633 0.4548 0
M  V30 6 C -0.987 -1.6757 0.6315 0
M  V30 7 C 0.8182 2.9832 1.7562 0
M  V30 8 C 0.1891 1.8741 3.9062 0
M  V30 9 C -0.365 -0.7076 -0.1445 0
M  V30 10 C -0.2231 -0.933 -1.6029 0
M  V30 11 N -0.8933 -1.8792 -2.2141 0
M  V30 12 N 0.621 -0.2008 -2.3929 0
M  V30 13 C -0.4555 -1.7267 -3.6026 0 CFG=1
M  V30 14 N 0.6075 -0.7332 -3.6806 0
M  V30 15 N 0.1083 -2.9628 -4.0485 0
M  V30 16 H -1.5575 -2.1492 2.6482 0
M  V30 17 H 0.5729 1.2296 -0.1499 0
M  V30 18 H -1.3748 -2.5927 0.2027 0
M  V30 19 H 1.6754 2.7869 1.1032 0
M  V30 20 H 1.124 3.782 2.4408 0
M  V30 21 H -0.0117 3.3696 1.1545 0
M  V30 22 H 0.5873 0.9985 4.4321 0
M  V30 23 H -0.8813 1.9675 4.121 0
M  V30 24 H 0.689 2.7478 4.3391 0
M  V30 25 H 1.3838 0.3716 -2.0465 0
M  V30 26 H -1.3108 -1.4422 -4.226 0
M  V30 27 H 0.3144 -0.0378 -4.3665 0
M  V30 28 H -0.5058 -3.6841 -3.6793 0
M  V30 29 H 0.9703 -3.056 -3.5183 0
M  V30 END ATOM
M  V30 BEGIN BOND
M  V30 1 2 1 2
M  V30 2 1 1 3
M  V30 3 1 2 4
M  V30 4 1 2 5
M  V30 5 2 3 6
M  V30 6 1 4 7
M  V30 7 1 4 8
M  V30 8 2 5 9
M  V30 9 1 9 10
M  V30 10 2 10 11
M  V30 11 1 10 12
M  V30 12 1 11 13
M  V30 13 1 12 14
M  V30 14 1 13 15
M  V30 15 1 6 9
M  V30 16 1 13 14
M  V30 17 1 3 16
M  V30 18 1 5 17
M  V30 19 1 6 18
M  V30 20 1 7 19
M  V30 21 1 7 20
M  V30 22 1 7 21
M  V30 23 1 8 22
M  V30 24 1 8 23
M  V30 25 1 8 24
M  V30 26 1 12 25
M  V30 27 1 13 26
M  V30 28 1 14 27
M  V30 29 1 15 28
M  V30 30 1 15 29
M  V30 END BOND
M  V30 BEGIN COLLECTION
M  V30 MDLV30/STEABS ATOMS=(1 13)
M  V30 END COLLECTION
M  V30 END CTAB
M  END
>  <level_0>
6371

>  <index>
6371

>  <NO.>
6372

>  <Name>


>  <SMILES>
CN(C)c1cc(C2=N[C@H](N)NN2)ccn1

>  <logBB>


>  <Class>
-1

>  <MW>
206.13

>  <nHBAcc>
6

>  <nHBDon>
3

>  <SLogP>
-0.76

>  <TopoPSA>
78.57

>  <MMFF94 Energy>
-97.671

$$$$
CN(CCN(C)CNC(=O)C1=C(O)[C@@H](N(C)C)[C@H]2C[C@@H]3C(=C(O)[C@@]2(O)C1=O)C(=O)c1c(O)cccc1[C@]3(C)O)CNC(=O)C1=C(O)[C@@H](N(C)C)[C@@H]2C[C@H]3C(=C(O)[C@@]2(O)C1=O)C(=O)c1c(O)cccc1[C@]3(C)O
Actelion Java MolfileCreator 2.0

  0  0  0  0  0  0              0 V3000
M  V30 BEGIN CTAB
M  V30 COUNTS 132 139 0 0 0
M  V30 BEGIN ATOM
M  V30 1 O 5.0677 -0.8834 -3.8593 0
M  V30 2 C 4.7507 0.2322 -3.4644 0
M  V30 3 C 5.6144 1.4417 -3.5482 0
M  V30 4 C 3.448 0.4421 -2.7909 0
M  V30 5 C 7.0102 1.3375 -3.4835 0
M  V30 6 C 5.0039 2.7097 -3.6583 0
M  V30 7 C 2.9444 -0.528 -2.0014 0
M  V30 8 C 2.7763 1.7881 -2.8659 0 CFG=2
M  V30 9 O 7.6111 0.1215 -3.3219 0
M  V30 10 C 7.8063 2.4818 -3.5413 0
M  V30 11 C 5.8221 3.8503 -3.7179 0
M  V30 12 C 3.4927 2.8117 -3.7932 0 CFG=1
M  V30 13 O 3.4546 -1.808 -1.9303 0
M  V30 14 C 1.8522 -0.1554 -1.0287 0 CFG=1
M  V30 15 C 2.4161 2.3224 -1.4553 0
M  V30 16 C 7.2109 3.7361 -3.658 0
M  V30 17 O 3.056 4.1382 -3.4707 0
M  V30 18 C 3.1244 2.5744 -5.2719 0
M  V30 19 O 0.6373 -0.056 -1.8103 0
M  V30 20 C 1.569 -1.21 0.0607 0
M  V30 21 C 2.1434 1.2138 -0.3917 0 CFG=2
M  V30 22 O 0.7307 -2.0964 -0.1413 0
M  V30 23 C 2.2913 -1.1262 1.3622 0
M  V30 24 C 3.2688 1.1288 0.6912 0 CFG=1
M  V30 25 C 3.0693 -0.0539 1.6301 0
M  V30 26 C 2.2028 -2.2078 2.388 0
M  V30 27 N 4.6333 1.258 0.1147 0
M  V30 28 O 3.7631 0.0936 2.8312 0
M  V30 29 O 3.1347 -2.4 3.1703 0
M  V30 30 N 1.0368 -2.9094 2.4341 0
M  V30 31 C 5.3453 2.4075 0.6899 0
M  V30 32 C 5.5018 0.0807 0.2234 0
M  V30 33 C 0.8574 -4.0342 3.2969 0
M  V30 34 N -0.5562 -4.3886 3.2639 0
M  V30 35 C -0.8722 -5.3245 4.367 0
M  V30 36 C -0.9259 -5.0015 1.9775 0
M  V30 37 C -2.3475 -5.1924 4.8268 0
M  V30 38 N -2.5702 -4.3217 5.9933 0
M  V30 39 C -1.9646 -2.9976 5.9273 0
M  V30 40 C -3.9926 -4.2482 6.3243 0
M  V30 41 N -2.3459 -2.3039 4.7334 0
M  V30 42 C -3.2013 -1.2397 4.7336 0
M  V30 43 O -3.7801 -0.8418 5.7454 0
M  V30 44 C -3.4199 -0.557 3.4234 0
M  V30 45 C -2.7076 -0.9742 2.1768 0
M  V30 46 C -4.2868 0.4842 3.3275 0
M  V30 47 O -1.5987 -1.5042 2.2293 0
M  V30 48 C -3.4199 -0.6108 0.8628 0 CFG=2
M  V30 49 O -5.0581 0.9145 4.4086 0
M  V30 50 C -4.5378 1.3109 2.0362 0 CFG=2
M  V30 51 O -4.7285 -1.1902 0.8242 0
M  V30 52 C -2.7359 -1.1416 -0.3774 0
M  V30 53 C -3.5108 0.9275 0.9366 0 CFG=2
M  V30 54 N -4.5974 2.7477 2.3759 0
M  V30 55 O -2.7148 -2.5277 -0.4599 0
M  V30 56 C -2.3747 -0.337 -1.3973 0
M  V30 57 C -3.7087 1.5392 -0.4664 0
M  V30 58 C -5.6208 3.5008 1.6714 0
M  V30 59 C -3.3391 3.4572 2.5083 0
M  V30 60 C -2.0766 -0.9723 -2.7033 0
M  V30 61 C -2.4671 1.1692 -1.3178 0 CFG=2
M  V30 62 O -1.5007 -2.0539 -2.7845 0
M  V30 63 C -2.6034 -0.2898 -3.8996 0
M  V30 64 C -2.2916 1.9002 -2.6889 0 CFG=2
M  V30 65 C -2.9267 -1.0453 -5.0358 0
M  V30 66 C -2.8106 1.1018 -3.871 0
M  V30 67 O -0.8724 2.0351 -2.9468 0
M  V30 68 C -2.7914 3.3518 -2.626 0
M  V30 69 O -2.7104 -2.3935 -5.1266 0
M  V30 70 C -3.5033 -0.4353 -6.1418 0
M  V30 71 C -3.3846 1.6992 -5.0073 0
M  V30 72 C -3.7387 0.936 -6.1248 0
M  V30 73 H 1.8044 1.6083 -3.3489 0
M  V30 74 H 8.5729 0.2166 -3.4064 0
M  V30 75 H 8.8888 2.4166 -3.4843 0
M  V30 76 H 5.3771 4.8392 -3.8175 0
M  V30 77 H 4.1419 -1.8975 -2.6335 0
M  V30 78 H 3.1714 3.0304 -1.1009 0
M  V30 79 H 1.5006 2.9227 -1.5536 0
M  V30 80 H 7.8283 4.6303 -3.7019 0
M  V30 81 H 2.0968 4.1784 -3.6336 0
M  V30 82 H 3.6053 3.3185 -5.9186 0
M  V30 83 H 2.0451 2.6884 -5.4273 0
M  V30 84 H 3.4164 1.5807 -5.6265 0
M  V30 85 H 0.4429 -0.9972 -2.035 0
M  V30 86 H 1.2306 1.5304 0.1386 0
M  V30 87 H 3.0848 2.0157 1.3183 0
M  V30 88 H 3.778 -0.7715 3.3018 0
M  V30 89 H 0.255 -2.6397 1.8429 0
M  V30 90 H 5.5264 2.2834 1.7636 0
M  V30 91 H 4.7822 3.3352 0.541 0
M  V30 92 H 6.31 2.5521 0.1902 0
M  V30 93 H 5.8368 -0.1067 1.2497 0
M  V30 94 H 5.0224 -0.8258 -0.1501 0
M  V30 95 H 6.3978 0.2237 -0.3915 0
M  V30 96 H 1.5165 -4.85 2.9774 0
M  V30 97 H 1.1662 -3.719 4.3007 0
M  V30 98 H -0.2211 -5.1634 5.2361 0
M  V30 99 H -0.6768 -6.36 4.0566 0
M  V30 100 H -1.9849 -5.2807 1.9677 0
M  V30 101 H -0.3356 -5.9008 1.7664 0
M  V30 102 H -0.7947 -4.3066 1.1424 0
M  V30 103 H -2.9889 -4.8907 3.9888 0
M  V30 104 H -2.678 -6.2016 5.1062 0
M  V30 105 H -0.8723 -3.0706 5.9269 0
M  V30 106 H -2.216 -2.409 6.8176 0
M  V30 107 H -4.3926 -5.2503 6.5156 0
M  V30 108 H -4.5867 -3.7941 5.5237 0
M  V30 109 H -4.1513 -3.6726 7.2431 0
M  V30 110 H -1.8496 -2.5779 3.8848 0
M  V30 111 H -4.8063 0.405 5.211 0
M  V30 112 H -5.5377 1.0039 1.6984 0
M  V30 113 H -4.5954 -2.1236 0.5587 0
M  V30 114 H -2.5276 1.2928 1.2768 0
M  V30 115 H -2.0724 -2.7786 -1.1635 0
M  V30 116 H -3.7777 2.6232 -0.3759 0
M  V30 117 H -4.6355 1.1817 -0.9305 0
M  V30 118 H -5.3951 3.6379 0.6112 0
M  V30 119 H -6.5964 3.009 1.7536 0
M  V30 120 H -5.7432 4.494 2.1182 0
M  V30 121 H -2.8641 3.6527 1.5419 0
M  V30 122 H -2.6335 2.9029 3.1365 0
M  V30 123 H -3.4948 4.4227 3.0031 0
M  V30 124 H -1.592 1.4822 -0.7247 0
M  V30 125 H -0.4023 1.2478 -2.5969 0
M  V30 126 H -2.3749 3.8668 -1.7518 0
M  V30 127 H -2.4498 3.935 -3.4897 0
M  V30 128 H -3.8839 3.4115 -2.5827 0
M  V30 129 H -2.1561 -2.6699 -4.3653 0
M  V30 130 H -3.7616 -1.0262 -7.0165 0
M  V30 131 H -3.5482 2.7728 -5.0612 0
M  V30 132 H -4.1798 1.4183 -6.9943 0
M  V30 END ATOM
M  V30 BEGIN BOND
M  V30 1 2 1 2
M  V30 2 1 2 3
M  V30 3 1 2 4
M  V30 4 2 3 5
M  V30 5 1 3 6
M  V30 6 2 4 7
M  V30 7 1 4 8
M  V30 8 1 5 9
M  V30 9 1 5 10
M  V30 10 2 6 11
M  V30 11 1 6 12
M  V30 12 1 7 13
M  V30 13 1 7 14
M  V30 14 1 8 15
M  V30 15 2 10 16
M  V30 16 1 12 17
M  V30 17 1 12 18
M  V30 18 1 14 19
M  V30 19 1 14 20
M  V30 20 1 14 21
M  V30 21 2 20 22
M  V30 22 1 20 23
M  V30 23 1 21 24
M  V30 24 2 23 25
M  V30 25 1 23 26
M  V30 26 1 24 27
M  V30 27 1 25 28
M  V30 28 2 26 29
M  V30 29 1 26 30
M  V30 30 1 27 31
M  V30 31 1 27 32
M  V30 32 1 30 33
M  V30 33 1 33 34
M  V30 34 1 34 35
M  V30 35 1 34 36
M  V30 36 1 35 37
M  V30 37 1 37 38
M  V30 38 1 38 39
M  V30 39 1 38 40
M  V30 40 1 39 41
M  V30 41 1 41 42
M  V30 42 2 42 43
M  V30 43 1 42 44
M  V30 44 1 44 45
M  V30 45 2 44 46
M  V30 46 2 45 47
M  V30 47 1 45 48
M  V30 48 1 46 49
M  V30 49 1 46 50
M  V30 50 1 48 51
M  V30 51 1 48 52
M  V30 52 1 48 53
M  V30 53 1 50 54
M  V30 54 1 52 55
M  V30 55 2 52 56
M  V30 56 1 53 57
M  V30 57 1 54 58
M  V30 58 1 54 59
M  V30 59 1 56 60
M  V30 60 1 56 61
M  V30 61 2 60 62
M  V30 62 1 60 63
M  V30 63 1 61 64
M  V30 64 2 63 65
M  V30 65 1 63 66
M  V30 66 1 64 67
M  V30 67 1 64 68
M  V30 68 1 65 69
M  V30 69 1 65 70
M  V30 70 2 66 71
M  V30 71 2 70 72
M  V30 72 1 8 12
M  V30 73 1 11 16
M  V30 74 1 15 21
M  V30 75 1 24 25
M  V30 76 1 50 53
M  V30 77 1 57 61
M  V30 78 1 64 66
M  V30 79 1 71 72
M  V30 80 1 8 73
M  V30 81 1 9 74
M  V30 82 1 10 75
M  V30 83 1 11 76
M  V30 84 1 13 77
M  V30 85 1 15 78
M  V30 86 1 15 79
M  V30 87 1 16 80
M  V30 88 1 17 81
M  V30 89 1 18 82
M  V30 90 1 18 83
M  V30 91 1 18 84
M  V30 92 1 19 85
M  V30 93 1 21 86
M  V30 94 1 24 87
M  V30 95 1 28 88
M  V30 96 1 30 89
M  V30 97 1 31 90
M  V30 98 1 31 91
M  V30 99 1 31 92
M  V30 100 1 32 93
M  V30 101 1 32 94
M  V30 102 1 32 95
M  V30 103 1 33 96
M  V30 104 1 33 97
M  V30 105 1 35 98
M  V30 106 1 35 99
M  V30 107 1 36 100
M  V30 108 1 36 101
M  V30 109 1 36 102
M  V30 110 1 37 103
M  V30 111 1 37 104
M  V30 112 1 39 105
M  V30 113 1 39 106
M  V30 114 1 40 107
M  V30 115 1 40 108
M  V30 116 1 40 109
M  V30 117 1 41 110
M  V30 118 1 49 111
M  V30 119 1 50 112
M  V30 120 1 51 113
M  V30 121 1 53 114
M  V30 122 1 55 115
M  V30 123 1 57 116
M  V30 124 1 57 117
M  V30 125 1 58 118
M  V30 126 1 58 119
M  V30 127 1 58 120
M  V30 128 1 59 121
M  V30 129 1 59 122
M  V30 130 1 59 123
M  V30 131 1 61 124
M  V30 132 1 67 125
M  V30 133 1 68 126
M  V30 134 1 68 127
M  V30 135 1 68 128
M  V30 136 1 69 129
M  V30 137 1 70 130
M  V30 138 1 71 131
M  V30 139 1 72 132
M  V30 END BOND
M  V30 BEGIN COLLECTION
M  V30 MDLV30/STEABS ATOMS=(10 8 12 14 21 24 48 50 53 61 64)
M  V30 END COLLECTION
M  V30 END CTAB
M  END
>  <level_0>
6373

>  <index>
6373

>  <NO.>
6374

>  <Name>


>  <SMILES>
CN(CCN(C)CNC(=O)C1=C(O)[C@@H](N(C)C)[C@H]2C[C@@H]3C(=C(O)[C@@]2(O)C1=O)C(=O)c1c(O)cccc1[C@]3(C)O)CNC(=O)C1=C(O)[C@@H](N(C)C)[C@@H]2C[C@H]3C(=C(O)[C@@]2(O)C1=O)C(=O)c1c(O)cccc1[C@]3(C)O

>  <logBB>


>  <Class>
-1

>  <MW>
1000.41

>  <nHBAcc>
20

>  <nHBDon>
12

>  <SLogP>
-0.37

>  <TopoPSA>
341.74

>  <MMFF94 Energy>
159.05

$$$$
CO/N=C(/C(=O)N[C@@H]1C(=O)N2C(C(=O)O)=C(CN3C=CN4N=CC=C[C@@H]34)CS[C@H]12)c1nsc(N)n1
Actelion Java MolfileCreator 2.0

  0  0  0  0  0  0              0 V3000
M  V30 BEGIN CTAB
M  V30 COUNTS 54 58 0 0 0
M  V30 BEGIN ATOM
M  V30 1 S 0.6591 0.1647 0.0 0
M  V30 2 C -0.3592 1.4799 0.727 0 CFG=1
M  V30 3 C -0.675 -0.3874 -1.1143 0
M  V30 4 N -1.4812 0.8372 1.3708 0
M  V30 5 C 0.0239 2.033 2.1349 0 CFG=1
M  V30 6 C -1.9957 -0.6304 -0.4056 0
M  V30 7 C -2.3089 -0.0651 0.7835 0
M  V30 8 C -1.2833 1.3207 2.6123 0
M  V30 9 N 1.2813 1.5532 2.7553 0
M  V30 10 C -2.9072 -1.5903 -1.1426 0
M  V30 11 C -3.5441 -0.4474 1.5177 0
M  V30 12 O -1.8585 1.1527 3.6616 0
M  V30 13 C 2.5038 2.1057 2.427 0
M  V30 14 N -3.1761 -1.0771 -2.4691 0
M  V30 15 O -3.9229 -1.5814 1.7497 0
M  V30 16 O -4.2518 0.6379 1.8768 0
M  V30 17 O 2.6437 3.0488 1.6627 0
M  V30 18 C 3.6921 1.4606 3.1396 0
M  V30 19 C -3.8159 0.1226 -2.7827 0
M  V30 20 C -3.324 -2.0091 -3.6051 0 CFG=1
M  V30 21 N 3.4462 1.021 4.3485 0
M  V30 22 C 4.9618 1.3597 2.4179 0
M  V30 23 C -4.2436 0.1006 -4.053 0
M  V30 24 N -3.9335 -1.1173 -4.6241 0
M  V30 25 C -2.0056 -2.4947 -4.1195 0
M  V30 26 O 4.5415 0.3565 4.9167 0
M  V30 27 N 6.1448 1.5597 3.0204 0
M  V30 28 N 4.9623 1.0718 1.0443 0
M  V30 29 N -3.8635 -1.3508 -5.966 0
M  V30 30 C -1.74 -2.5161 -5.4345 0
M  V30 31 C 4.2351 0.0435 6.2696 0
M  V30 32 S 7.3234 1.3798 1.8589 0
M  V30 33 C 6.1948 1.0541 0.6044 0
M  V30 34 C -2.8178 -2.0258 -6.332 0
M  V30 35 N 6.5355 0.8126 -0.6661 0
M  V30 36 H -0.6598 2.2637 0.0216 0
M  V30 37 H -0.8011 0.3524 -1.9117 0
M  V30 38 H -0.3177 -1.3164 -1.5701 0
M  V30 39 H -0.0602 3.1245 2.2138 0
M  V30 40 H 1.2816 0.8204 3.4613 0
M  V30 41 H -3.8664 -1.7569 -0.647 0
M  V30 42 H -2.4132 -2.5683 -1.1934 0
M  V30 43 H -4.99 0.2828 2.4132 0
M  V30 44 H -3.9133 0.9194 -2.0591 0
M  V30 45 H -3.9997 -2.8354 -3.3549 0
M  V30 46 H -4.7334 0.8679 -4.6311 0
M  V30 47 H -1.2717 -2.8514 -3.4095 0
M  V30 48 H -0.8141 -2.8678 -5.8649 0
M  V30 49 H 3.3616 -0.6138 6.3177 0
M  V30 50 H 4.0493 0.9603 6.8375 0
M  V30 51 H 5.0919 -0.4751 6.7073 0
M  V30 52 H -2.6781 -2.2529 -7.4014 0
M  V30 53 H 5.8112 0.6478 -1.3542 0
M  V30 54 H 7.494 0.8164 -0.9863 0
M  V30 END ATOM
M  V30 BEGIN BOND
M  V30 1 1 1 2
M  V30 2 1 1 3
M  V30 3 1 2 4
M  V30 4 1 2 5
M  V30 5 1 3 6
M  V30 6 1 4 7
M  V30 7 1 4 8
M  V30 8 1 5 9
M  V30 9 1 6 10
M  V30 10 1 7 11
M  V30 11 2 8 12
M  V30 12 1 9 13
M  V30 13 1 10 14
M  V30 14 2 11 15
M  V30 15 1 11 16
M  V30 16 2 13 17
M  V30 17 1 13 18
M  V30 18 1 14 19
M  V30 19 1 14 20
M  V30 20 2 18 21
M  V30 21 1 18 22
M  V30 22 2 19 23
M  V30 23 1 20 24
M  V30 24 1 20 25
M  V30 25 1 21 26
M  V30 26 2 22 27
M  V30 27 1 22 28
M  V30 28 1 24 29
M  V30 29 2 25 30
M  V30 30 1 26 31
M  V30 31 1 27 32
M  V30 32 2 28 33
M  V30 33 2 29 34
M  V30 34 1 33 35
M  V30 35 1 5 8
M  V30 36 2 6 7
M  V30 37 1 23 24
M  V30 38 1 30 34
M  V30 39 1 32 33
M  V30 40 1 2 36
M  V30 41 1 3 37
M  V30 42 1 3 38
M  V30 43 1 5 39
M  V30 44 1 9 40
M  V30 45 1 10 41
M  V30 46 1 10 42
M  V30 47 1 16 43
M  V30 48 1 19 44
M  V30 49 1 20 45
M  V30 50 1 23 46
M  V30 51 1 25 47
M  V30 52 1 30 48
M  V30 53 1 31 49
M  V30 54 1 31 50
M  V30 55 1 31 51
M  V30 56 1 34 52
M  V30 57 1 35 53
M  V30 58 1 35 54
M  V30 END BOND
M  V30 BEGIN COLLECTION
M  V30 MDLV30/STEABS ATOMS=(3 2 5 20)
M  V30 END COLLECTION
M  V30 END CTAB
M  END
>  <level_0>
6446

>  <index>
6446

>  <NO.>
6447

>  <Name>


>  <SMILES>
CO/N=C(/C(=O)N[C@@H]1C(=O)N2C(C(=O)O)=C(CN3C=CN4N=CC=C[C@@H]34)CS[C@H]12)c1nsc(N)n1

>  <logBB>


>  <Class>
-1

>  <MW>
517.1

>  <nHBAcc>
13

>  <nHBDon>
3

>  <SLogP>
-0.82

>  <TopoPSA>
178.94

>  <MMFF94 Energy>
120.53

$$$$
CO/N=C(/C(=O)N[C@@H]1C(=O)N2C(C(=O)O)=C(CN3NN=C(C)N3)CS[C@@H]12)c1csc(N)n1
Actelion Java MolfileCreator 2.0

  0  0  0  0  0  0              0 V3000
M  V30 BEGIN CTAB
M  V30 COUNTS 51 54 0 0 0
M  V30 BEGIN ATOM
M  V30 1 S 1.9677 2.296 1.9677 0
M  V30 2 C 1.2415 0.6534 1.7236 0 CFG=2
M  V30 3 C 1.1014 2.9975 0.5189 0
M  V30 4 N -0.1792 0.822 1.9009 0
M  V30 5 C 1.2063 -0.3051 2.964 0 CFG=1
M  V30 6 C -0.3767 2.6404 0.4289 0
M  V30 7 C -0.944 1.6361 1.1371 0
M  V30 8 C -0.3488 -0.0347 2.9206 0
M  V30 9 N 1.5075 -1.7423 2.7024 0
M  V30 10 C -1.1557 3.5386 -0.5199 0
M  V30 11 C -2.3948 1.3268 1.1007 0
M  V30 12 O -1.3238 -0.4019 3.5322 0
M  V30 13 C 2.4846 -2.14 1.8143 0
M  V30 14 N -0.6166 3.4899 -1.9003 0
M  V30 15 O -2.8781 0.2579 0.7661 0
M  V30 16 O -3.1463 2.3579 1.5245 0
M  V30 17 O 3.407 -1.4426 1.421 0
M  V30 18 C 2.2471 -3.5311 1.2256 0
M  V30 19 N -1.0241 2.2205 -2.499 0
M  V30 20 N -1.2624 4.4385 -2.676 0
M  V30 21 N 3.0496 -4.4745 1.6284 0
M  V30 22 C 1.1141 -3.651 0.3023 0
M  V30 23 N -1.6827 2.475 -3.6736 0
M  V30 24 C -1.8263 3.7716 -3.7187 0
M  V30 25 O 2.724 -5.7403 1.1279 0
M  V30 26 N 0.0738 -2.7169 0.3934 0
M  V30 27 C 0.9395 -4.5694 -0.715 0
M  V30 28 C -2.4955 4.4725 -4.8526 0
M  V30 29 C 3.6679 -6.6796 1.6315 0
M  V30 30 C -0.851 -2.9459 -0.5037 0
M  V30 31 S -0.5373 -4.2781 -1.5378 0
M  V30 32 N -1.9576 -2.2097 -0.6252 0
M  V30 33 H 1.4878 0.1828 0.7651 0
M  V30 34 H 1.6207 2.662 -0.3851 0
M  V30 35 H 1.2166 4.0844 0.5894 0
M  V30 36 H 1.6894 0.0515 3.8789 0
M  V30 37 H 0.7885 -2.4273 2.9273 0
M  V30 38 H -2.2299 3.3212 -0.531 0
M  V30 39 H -1.0641 4.5652 -0.1376 0
M  V30 40 H -4.056 1.9931 1.5256 0
M  V30 41 H -0.2285 1.5972 -2.6619 0
M  V30 42 H -1.1052 5.4355 -2.6231 0
M  V30 43 H 1.5904 -5.3733 -1.026 0
M  V30 44 H -1.741 4.7639 -5.5882 0
M  V30 45 H -3.0064 5.3685 -4.49 0
M  V30 46 H -3.223 3.8096 -5.3286 0
M  V30 47 H 3.6251 -6.7103 2.7246 0
M  V30 48 H 4.677 -6.4171 1.2994 0
M  V30 49 H 3.4134 -7.668 1.2403 0
M  V30 50 H -2.6575 -2.3931 -1.3305 0
M  V30 51 H -2.1622 -1.4346 0.0068 0
M  V30 END ATOM
M  V30 BEGIN BOND
M  V30 1 1 1 2
M  V30 2 1 1 3
M  V30 3 1 2 4
M  V30 4 1 2 5
M  V30 5 1 3 6
M  V30 6 1 4 7
M  V30 7 1 4 8
M  V30 8 1 5 9
M  V30 9 1 6 10
M  V30 10 1 7 11
M  V30 11 2 8 12
M  V30 12 1 9 13
M  V30 13 1 10 14
M  V30 14 2 11 15
M  V30 15 1 11 16
M  V30 16 2 13 17
M  V30 17 1 13 18
M  V30 18 1 14 19
M  V30 19 1 14 20
M  V30 20 2 18 21
M  V30 21 1 18 22
M  V30 22 1 19 23
M  V30 23 1 20 24
M  V30 24 1 21 25
M  V30 25 1 22 26
M  V30 26 2 22 27
M  V30 27 1 24 28
M  V30 28 1 25 29
M  V30 29 2 26 30
M  V30 30 1 27 31
M  V30 31 1 30 32
M  V30 32 1 5 8
M  V30 33 2 6 7
M  V30 34 2 23 24
M  V30 35 1 30 31
M  V30 36 1 2 33
M  V30 37 1 3 34
M  V30 38 1 3 35
M  V30 39 1 5 36
M  V30 40 1 9 37
M  V30 41 1 10 38
M  V30 42 1 10 39
M  V30 43 1 16 40
M  V30 44 1 19 41
M  V30 45 1 20 42
M  V30 46 1 27 43
M  V30 47 1 28 44
M  V30 48 1 28 45
M  V30 49 1 28 46
M  V30 50 1 29 47
M  V30 51 1 29 48
M  V30 52 1 29 49
M  V30 53 1 32 50
M  V30 54 1 32 51
M  V30 END BOND
M  V30 BEGIN COLLECTION
M  V30 MDLV30/STEABS ATOMS=(2 2 5)
M  V30 END COLLECTION
M  V30 END CTAB
M  END
>  <level_0>
6447

>  <index>
6447

>  <NO.>
6448

>  <Name>


>  <SMILES>
CO/N=C(/C(=O)N[C@@H]1C(=O)N2C(C(=O)O)=C(CN3NN=C(C)N3)CS[C@@H]12)c1csc(N)n1

>  <logBB>


>  <Class>
-1

>  <MW>
481.1

>  <nHBAcc>
13

>  <nHBDon>
5

>  <SLogP>
-1.53

>  <TopoPSA>
186.87

>  <MMFF94 Energy>
67.886

$$$$
CO/N=C(/C(=O)N[C@H]1C(=O)N2C(C(=O)O)=C(CN3CC=C(N)N3CCO)CS[C@@H]12)c1csc(N)n1
Actelion Java MolfileCreator 2.0

  0  0  0  0  0  0              0 V3000
M  V30 BEGIN CTAB
M  V30 COUNTS 59 62 0 0 0
M  V30 BEGIN ATOM
M  V30 1 S 0.325 0.0812 1.6258 0
M  V30 2 C 0.3063 -0.8946 0.0958 0 CFG=2
M  V30 3 C 1.417 1.3547 0.9061 0
M  V30 4 N -0.2835 -0.0715 -0.9275 0
M  V30 5 C -0.8828 -1.8799 -0.1202 0 CFG=2
M  V30 6 C 0.9591 1.8801 -0.4402 0
M  V30 7 C 0.1157 1.1855 -1.2422 0
M  V30 8 C -1.2635 -0.9165 -1.3055 0
M  V30 9 N -1.8838 -1.9728 0.972 0
M  V30 10 C 1.4667 3.2806 -0.7826 0
M  V30 11 C -0.4391 1.7569 -2.4931 0
M  V30 12 O -2.1136 -0.8407 -2.1591 0
M  V30 13 C -2.7784 -3.0174 1.0619 0
M  V30 14 N 2.8826 3.4524 -1.1667 0
M  V30 15 O -0.1666 1.4029 -3.6252 0
M  V30 16 O -1.3383 2.7242 -2.2363 0
M  V30 17 O -2.8365 -3.962 0.2899 0
M  V30 18 C -3.7544 -2.8968 2.231 0
M  V30 19 N 3.3016 2.4243 -2.0745 0
M  V30 20 C 3.84 3.3663 -0.0431 0
M  V30 21 N -4.3811 -1.7536 2.3225 0
M  V30 22 C -3.8792 -4.0192 3.1555 0
M  V30 23 C 4.3225 1.6624 -1.5301 0
M  V30 24 C 2.9787 2.511 -3.5 0
M  V30 25 C 4.6708 2.1647 -0.3414 0
M  V30 26 O -5.1905 -1.6496 3.4617 0
M  V30 27 N -2.757 -4.778 3.4897 0
M  V30 28 C -5.0494 -4.4602 3.7475 0
M  V30 29 N 4.904 0.5884 -2.1013 0
M  V30 30 C 4.0602 3.2782 -4.2641 0
M  V30 31 C -5.831 -0.3786 3.4454 0
M  V30 32 C -3.0816 -5.7445 4.3103 0
M  V30 33 S -4.7389 -5.8181 4.7422 0
M  V30 34 O 3.7353 3.3522 -5.6518 0
M  V30 35 N -2.1973 -6.624 4.7887 0
M  V30 36 H 1.2782 -1.312 -0.1924 0
M  V30 37 H 1.4408 2.1682 1.6378 0
M  V30 38 H 2.4218 0.9322 0.8307 0
M  V30 39 H -0.5559 -2.869 -0.4619 0
M  V30 40 H -1.9773 -1.2188 1.6487 0
M  V30 41 H 1.242 3.9498 0.0593 0
M  V30 42 H 0.8834 3.7098 -1.6035 0
M  V30 43 H -1.6945 2.9379 -3.1241 0
M  V30 44 H 3.3644 3.2922 0.9384 0
M  V30 45 H 4.4734 4.2602 -0.0397 0
M  V30 46 H 2.856 1.5084 -3.9269 0
M  V30 47 H 2.0168 3.0144 -3.6502 0
M  V30 48 H 5.4492 1.7899 0.3019 0
M  V30 49 H -6.0492 -4.0649 3.64 0
M  V30 50 H 5.6531 0.1004 -1.6315 0
M  V30 51 H 4.5404 0.2357 -2.9753 0
M  V30 52 H 4.1532 4.299 -3.8778 0
M  V30 53 H 5.0333 2.7855 -4.1703 0
M  V30 54 H -6.4613 -0.2838 2.556 0
M  V30 55 H -5.0848 0.4215 3.4672 0
M  V30 56 H -6.4613 -0.298 4.3349 0
M  V30 57 H 4.4408 3.87 -6.0759 0
M  V30 58 H -2.4652 -7.3745 5.4096 0
M  V30 59 H -1.2297 -6.5704 4.4994 0
M  V30 END ATOM
M  V30 BEGIN BOND
M  V30 1 1 1 2
M  V30 2 1 1 3
M  V30 3 1 2 4
M  V30 4 1 2 5
M  V30 5 1 3 6
M  V30 6 1 4 7
M  V30 7 1 4 8
M  V30 8 1 5 9
M  V30 9 1 6 10
M  V30 10 1 7 11
M  V30 11 2 8 12
M  V30 12 1 9 13
M  V30 13 1 10 14
M  V30 14 2 11 15
M  V30 15 1 11 16
M  V30 16 2 13 17
M  V30 17 1 13 18
M  V30 18 1 14 19
M  V30 19 1 14 20
M  V30 20 2 18 21
M  V30 21 1 18 22
M  V30 22 1 19 23
M  V30 23 1 19 24
M  V30 24 1 20 25
M  V30 25 1 21 26
M  V30 26 1 22 27
M  V30 27 2 22 28
M  V30 28 1 23 29
M  V30 29 1 24 30
M  V30 30 1 26 31
M  V30 31 2 27 32
M  V30 32 1 28 33
M  V30 33 1 30 34
M  V30 34 1 32 35
M  V30 35 1 5 8
M  V30 36 2 6 7
M  V30 37 2 23 25
M  V30 38 1 32 33
M  V30 39 1 2 36
M  V30 40 1 3 37
M  V30 41 1 3 38
M  V30 42 1 5 39
M  V30 43 1 9 40
M  V30 44 1 10 41
M  V30 45 1 10 42
M  V30 46 1 16 43
M  V30 47 1 20 44
M  V30 48 1 20 45
M  V30 49 1 24 46
M  V30 50 1 24 47
M  V30 51 1 25 48
M  V30 52 1 28 49
M  V30 53 1 29 50
M  V30 54 1 29 51
M  V30 55 1 30 52
M  V30 56 1 30 53
M  V30 57 1 31 54
M  V30 58 1 31 55
M  V30 59 1 31 56
M  V30 60 1 34 57
M  V30 61 1 35 58
M  V30 62 1 35 59
M  V30 END BOND
M  V30 BEGIN COLLECTION
M  V30 MDLV30/STEABS ATOMS=(2 2 5)
M  V30 END COLLECTION
M  V30 END CTAB
M  END
>  <level_0>
6450

>  <index>
6450

>  <NO.>
6451

>  <Name>


>  <SMILES>
CO/N=C(/C(=O)N[C@H]1C(=O)N2C(C(=O)O)=C(CN3CC=C(N)N3CCO)CS[C@@H]12)c1csc(N)n1

>  <logBB>


>  <Class>
-1

>  <MW>
524.13

>  <nHBAcc>
13

>  <nHBDon>
5

>  <SLogP>
-1.86

>  <TopoPSA>
199.94

>  <MMFF94 Energy>
38.831

$$$$
CO[C@@H]1/C=C/O[C@]2(C)Oc3c(C)c(O)c4c(c3C2=O)C2=C(NC3(CCN(CC(C)C)CC3)N2)[C@@H](NC(=O)/C(C)=C/C=C/[C@@H](C)[C@@H](O)[C@@H](C)[C@@H](O)[C@H](C)[C@H](OC(C)=O)[C@@H]1C)C4=O
Actelion Java MolfileCreator 2.0

  0  0  0  0  0  0              0 V3000
M  V30 BEGIN CTAB
M  V30 COUNTS 125 130 0 0 0
M  V30 BEGIN ATOM
M  V30 1 O 1.4315 1.4315 0.3975 0
M  V30 2 C 2.5939 1.3835 0.7897 0
M  V30 3 N 2.9944 1.8284 2.0248 0
M  V30 4 C 3.6937 0.8954 -0.1076 0
M  V30 5 C 2.0773 2.4757 2.9548 0 CFG=1
M  V30 6 C 3.3084 -0.0049 -1.0336 0
M  V30 7 C 5.046 1.5265 0.0187 0
M  V30 8 C 1.554 3.7918 2.3528 0
M  V30 9 C 0.9845 1.5803 3.4019 0
M  V30 10 C 4.0916 -0.5213 -2.1368 0
M  V30 11 O 2.3073 4.7443 2.1228 0
M  V30 12 C 0.1199 3.8823 1.9215 0
M  V30 13 N 1.1037 0.429 4.1704 0
M  V30 14 C -0.3115 1.7732 3.1162 0
M  V30 15 C 3.6135 -1.4688 -2.9598 0
M  V30 16 C -0.2818 4.9506 1.0801 0
M  V30 17 C -0.7871 2.8545 2.2712 0
M  V30 18 C -0.201 -0.2234 4.36 0
M  V30 19 N -1.0461 0.7666 3.6923 0
M  V30 20 C 4.2899 -1.9135 -4.2334 0 CFG=2
M  V30 21 O 0.577 5.9623 0.725 0
M  V30 22 C -1.5674 4.9992 0.5256 0
M  V30 23 C -2.051 2.9234 1.6955 0
M  V30 24 C -0.5376 -0.3378 5.8372 0
M  V30 25 C -0.2392 -1.5642 3.6435 0
M  V30 26 C 3.7654 -1.1952 -5.5215 0 CFG=1
M  V30 27 C 4.306 -3.4456 -4.3042 0
M  V30 28 C -2.4139 3.9388 0.8168 0
M  V30 29 C -1.9733 6.0818 -0.4304 0
M  V30 30 C -3.1904 2.0197 1.7114 0
M  V30 31 C -1.8204 -1.1384 6.0388 0
M  V30 32 C -1.5316 -2.3138 3.95 0
M  V30 33 O 4.4833 -1.7435 -6.6435 0
M  V30 34 C 2.2419 -1.1808 -5.8866 0 CFG=2
M  V30 35 O -3.6384 3.7911 0.2079 0
M  V30 36 O -3.3612 1.0881 2.4809 0
M  V30 37 C -4.1209 2.4733 0.5779 0 CFG=1
M  V30 38 N -1.7202 -2.4634 5.4025 0
M  V30 39 C 1.403 -0.2496 -4.9699 0 CFG=1
M  V30 40 C 1.6536 -2.5897 -5.997 0
M  V30 41 O -4.205 1.5903 -0.5492 0
M  V30 42 C -5.5355 2.6471 1.1233 0
M  V30 43 C -2.9094 -3.286 5.6956 0
M  V30 44 O 2.0022 1.0507 -4.9674 0
M  V30 45 C -0.1235 -0.1497 -5.2841 0 CFG=1
M  V30 46 C -2.9998 1.1128 -0.9882 0
M  V30 47 C -2.6306 -4.4044 6.7244 0
M  V30 48 C -0.9602 0.2052 -3.9996 0 CFG=2
M  V30 49 C -0.4258 0.821 -6.4316 0
M  V30 50 C -2.8173 -0.1675 -1.324 0
M  V30 51 C -1.5691 -5.3872 6.2232 0
M  V30 52 C -2.2464 -3.8694 8.1036 0
M  V30 53 O -0.2308 1.1612 -3.2019 0
M  V30 54 C -1.1998 -1.0699 -3.1274 0 CFG=1
M  V30 55 C -1.472 -0.7661 -1.6303 0 CFG=2
M  V30 56 C -0.4673 2.4828 -3.4077 0
M  V30 57 C -2.2919 -1.9675 -3.7367 0
M  V30 58 O -1.4327 -1.9968 -0.8823 0
M  V30 59 O -1.2998 2.9482 -4.1725 0
M  V30 60 C 0.4341 3.3005 -2.5344 0
M  V30 61 C -0.1373 -2.2953 -0.3785 0
M  V30 62 H 3.9574 1.7471 2.3103 0
M  V30 63 H 2.6667 2.758 3.8364 0
M  V30 64 H 2.2754 -0.3561 -1.0112 0
M  V30 65 H 5.5777 1.1188 0.8845 0
M  V30 66 H 4.9547 2.611 0.1449 0
M  V30 67 H 5.6777 1.3678 -0.8585 0
M  V30 68 H 5.0515 -0.0632 -2.3553 0
M  V30 69 H 1.9826 -0.0338 4.3409 0
M  V30 70 H 2.6558 -1.936 -2.74 0
M  V30 71 H -2.0192 0.5965 3.4417 0
M  V30 72 H 5.3532 -1.6358 -4.1658 0
M  V30 73 H 1.4469 5.8038 1.1567 0
M  V30 74 H 0.285 -0.8348 6.3692 0
M  V30 75 H -0.6494 0.6527 6.2965 0
M  V30 76 H -0.1427 -1.4346 2.56 0
M  V30 77 H 0.6155 -2.1779 3.9591 0
M  V30 78 H 4.1028 -0.1527 -5.4529 0
M  V30 79 H 3.3037 -3.8782 -4.254 0
M  V30 80 H 4.7895 -3.803 -5.2185 0
M  V30 81 H 4.871 -3.8579 -3.4592 0
M  V30 82 H -1.6112 5.8483 -1.4363 0
M  V30 83 H -3.0618 6.1947 -0.4685 0
M  V30 84 H -1.5711 7.0522 -0.121 0
M  V30 85 H -1.9811 -1.2463 7.1172 0
M  V30 86 H -2.6792 -0.5789 5.6446 0
M  V30 87 H -1.4586 -3.3042 3.4833 0
M  V30 88 H -2.3888 -1.8031 3.492 0
M  V30 89 H 4.3534 -1.1422 -7.3967 0
M  V30 90 H 2.1919 -0.7552 -6.8996 0
M  V30 91 H 1.4867 -0.6203 -3.9516 0
M  V30 92 H 2.3464 -3.2785 -6.4902 0
M  V30 93 H 0.7423 -2.5869 -6.6037 0
M  V30 94 H 1.3948 -2.9934 -5.0136 0
M  V30 95 H -5.9667 1.685 1.4206 0
M  V30 96 H -5.5544 3.3213 1.9869 0
M  V30 97 H -6.1912 3.0779 0.3579 0
M  V30 98 H -3.7484 -2.6679 6.0429 0
M  V30 99 H -3.2768 -3.7749 4.7826 0
M  V30 100 H 1.9873 1.4009 -5.8742 0
M  V30 101 H -0.4812 -1.1218 -5.629 0
M  V30 102 H -2.2019 1.8418 -1.0156 0
M  V30 103 H -3.5666 -4.9667 6.8429 0
M  V30 104 H -1.9398 0.6137 -4.2794 0
M  V30 105 H -0.1381 1.8496 -6.2009 0
M  V30 106 H -1.4969 0.8194 -6.6616 0
M  V30 107 H 0.1047 0.5199 -7.3408 0
M  V30 108 H -3.6619 -0.8505 -1.2805 0
M  V30 109 H -0.5871 -4.9117 6.1298 0
M  V30 110 H -1.8461 -5.7928 5.2444 0
M  V30 111 H -1.4671 -6.2296 6.9158 0
M  V30 112 H -1.2727 -3.369 8.0895 0
M  V30 113 H -2.9956 -3.1591 8.4686 0
M  V30 114 H -2.1852 -4.6883 8.8288 0
M  V30 115 H -0.2815 -1.6693 -3.149 0
M  V30 116 H -0.6928 -0.1031 -1.233 0
M  V30 117 H -3.2406 -1.4303 -3.8387 0
M  V30 118 H -2.0092 -2.3284 -4.7295 0
M  V30 119 H -2.4679 -2.8522 -3.1159 0
M  V30 120 H 0.1954 3.1149 -1.4854 0
M  V30 121 H 1.4783 3.0522 -2.7401 0
M  V30 122 H 0.282 4.3621 -2.7481 0
M  V30 123 H 0.5671 -2.4682 -1.1961 0
M  V30 124 H -0.2045 -3.2085 0.2187 0
M  V30 125 H 0.2246 -1.4868 0.2627 0
M  V30 END ATOM
M  V30 BEGIN BOND
M  V30 1 2 1 2
M  V30 2 1 2 3
M  V30 3 1 2 4
M  V30 4 1 3 5
M  V30 5 2 4 6
M  V30 6 1 4 7
M  V30 7 1 5 8
M  V30 8 1 5 9
M  V30 9 1 6 10
M  V30 10 2 8 11
M  V30 11 1 8 12
M  V30 12 1 9 13
M  V30 13 2 9 14
M  V30 14 2 10 15
M  V30 15 2 12 16
M  V30 16 1 12 17
M  V30 17 1 13 18
M  V30 18 1 14 19
M  V30 19 1 15 20
M  V30 20 1 16 21
M  V30 21 1 16 22
M  V30 22 2 17 23
M  V30 23 1 18 24
M  V30 24 1 18 25
M  V30 25 1 20 26
M  V30 26 1 20 27
M  V30 27 2 22 28
M  V30 28 1 22 29
M  V30 29 1 23 30
M  V30 30 1 24 31
M  V30 31 1 25 32
M  V30 32 1 26 33
M  V30 33 1 26 34
M  V30 34 1 28 35
M  V30 35 2 30 36
M  V30 36 1 30 37
M  V30 37 1 31 38
M  V30 38 1 34 39
M  V30 39 1 34 40
M  V30 40 1 37 41
M  V30 41 1 37 42
M  V30 42 1 38 43
M  V30 43 1 39 44
M  V30 44 1 39 45
M  V30 45 1 41 46
M  V30 46 1 43 47
M  V30 47 1 45 48
M  V30 48 1 45 49
M  V30 49 2 46 50
M  V30 50 1 47 51
M  V30 51 1 47 52
M  V30 52 1 48 53
M  V30 53 1 48 54
M  V30 54 1 50 55
M  V30 55 1 53 56
M  V30 56 1 54 57
M  V30 57 1 55 58
M  V30 58 2 56 59
M  V30 59 1 56 60
M  V30 60 1 58 61
M  V30 61 1 14 17
M  V30 62 1 18 19
M  V30 63 1 23 28
M  V30 64 1 32 38
M  V30 65 1 35 37
M  V30 66 1 54 55
M  V30 67 1 3 62
M  V30 68 1 5 63
M  V30 69 1 6 64
M  V30 70 1 7 65
M  V30 71 1 7 66
M  V30 72 1 7 67
M  V30 73 1 10 68
M  V30 74 1 13 69
M  V30 75 1 15 70
M  V30 76 1 19 71
M  V30 77 1 20 72
M  V30 78 1 21 73
M  V30 79 1 24 74
M  V30 80 1 24 75
M  V30 81 1 25 76
M  V30 82 1 25 77
M  V30 83 1 26 78
M  V30 84 1 27 79
M  V30 85 1 27 80
M  V30 86 1 27 81
M  V30 87 1 29 82
M  V30 88 1 29 83
M  V30 89 1 29 84
M  V30 90 1 31 85
M  V30 91 1 31 86
M  V30 92 1 32 87
M  V30 93 1 32 88
M  V30 94 1 33 89
M  V30 95 1 34 90
M  V30 96 1 39 91
M  V30 97 1 40 92
M  V30 98 1 40 93
M  V30 99 1 40 94
M  V30 100 1 42 95
M  V30 101 1 42 96
M  V30 102 1 42 97
M  V30 103 1 43 98
M  V30 104 1 43 99
M  V30 105 1 44 100
M  V30 106 1 45 101
M  V30 107 1 46 102
M  V30 108 1 47 103
M  V30 109 1 48 104
M  V30 110 1 49 105
M  V30 111 1 49 106
M  V30 112 1 49 107
M  V30 113 1 50 108
M  V30 114 1 51 109
M  V30 115 1 51 110
M  V30 116 1 51 111
M  V30 117 1 52 112
M  V30 118 1 52 113
M  V30 119 1 52 114
M  V30 120 1 54 115
M  V30 121 1 55 116
M  V30 122 1 57 117
M  V30 123 1 57 118
M  V30 124 1 57 119
M  V30 125 1 60 120
M  V30 126 1 60 121
M  V30 127 1 60 122
M  V30 128 1 61 123
M  V30 129 1 61 124
M  V30 130 1 61 125
M  V30 END BOND
M  V30 BEGIN COLLECTION
M  V30 MDLV30/STEABS ATOMS=(10 5 20 26 34 37 39 45 48 54 55)
M  V30 END COLLECTION
M  V30 END CTAB
M  END
>  <level_0>
6482

>  <index>
6482

>  <NO.>
6483

>  <Name>


>  <SMILES>
CO[C@@H]1/C=C/O[C@]2(C)Oc3c(C)c(O)c4c(c3C2=O)C2=C(NC3(CCN(CC(C)C)CC3)N2)[C@@H](NC(=O)/C(C)=C/C=C/[C@@H](C)[C@@H](O)[C@@H](C)[C@@H](O)[C@H](C)[C@H](OC(C)=O)[C@@H]1C)C4=O

>  <logBB>


>  <Class>
-1

>  <MW>
848.46

>  <nHBAcc>
14

>  <nHBDon>
6

>  <SLogP>
4.24

>  <TopoPSA>
205.22

>  <MMFF94 Energy>
143.78

$$$$
CO[C@@]1(NC(=O)[C@H]2SC3=S2OC(N)=C3C(=O)O)C(=O)N2C(C(=O)O)=C(CSc3nnnn3C)CS[C@@H]21
Actelion Java MolfileCreator 2.0

  0  0  0  0  0  0              0 V3000
M  V30 BEGIN CTAB
M  V30 COUNTS 53 57 0 0 0
M  V30 BEGIN ATOM
M  V30 1 S 3.3089 -2.0353 0.0 0
M  V30 2 O 4.9234 -2.39 0.1842 0
M  V30 3 C 2.9796 -3.6168 -0.4365 0
M  V30 4 C 2.719 -2.5372 1.6225 0 CFG=2
M  V30 5 C 5.2398 -3.5339 -0.5051 0
M  V30 6 S 1.6806 -3.806 0.6651 0
M  V30 7 C 4.1101 -4.2782 -0.8229 0
M  V30 8 C 1.8842 -1.4177 2.3341 0
M  V30 9 N 6.5496 -3.7636 -0.6337 0
M  V30 10 C 4.0948 -5.6194 -1.3639 0
M  V30 11 O 2.3927 -0.4902 2.976 0
M  V30 12 N 0.5061 -1.5188 2.236 0
M  V30 13 O 3.0936 -6.2872 -1.5836 0
M  V30 14 O 5.3095 -6.1507 -1.6483 0
M  V30 15 C -0.4517 -0.5286 2.804 0 CFG=2
M  V30 16 O -0.6498 -0.65 4.2435 0
M  V30 17 C -1.8828 -0.6347 2.0562 0
M  V30 18 C -0.4734 0.9396 2.1905 0 CFG=2
M  V30 19 C 0.3816 -0.1807 5.0968 0
M  V30 20 O -2.7228 -1.4844 1.8639 0
M  V30 21 N -1.7463 0.6195 1.5846 0
M  V30 22 S 0.6552 1.3609 0.8268 0
M  V30 23 C -2.4167 1.4055 0.7003 0
M  V30 24 C -0.3412 2.7873 0.296 0
M  V30 25 C -1.8082 2.4533 0.0945 0
M  V30 26 C -3.8332 1.0508 0.3965 0
M  V30 27 C -2.5269 3.4143 -0.8297 0
M  V30 28 O -4.3482 0.9734 -0.7034 0
M  V30 29 O -4.5371 0.8784 1.5301 0
M  V30 30 S -2.2391 2.945 -2.5619 0
M  V30 31 C -3.2579 4.09 -3.3509 0
M  V30 32 N -3.6616 5.2489 -2.8841 0
M  V30 33 N -3.7766 3.9173 -4.5994 0
M  V30 34 N -4.4432 5.7977 -3.8747 0
M  V30 35 N -4.5181 4.9914 -4.9266 0
M  V30 36 C -3.6417 2.8123 -5.5058 0
M  V30 37 H 3.456 -3.0124 2.2789 0
M  V30 38 H 7.2369 -3.0932 -0.3083 0
M  V30 39 H 6.9022 -4.606 -1.0801 0
M  V30 40 H 0.1305 -2.3043 1.7103 0
M  V30 41 H 5.0748 -7.0351 -1.9997 0
M  V30 42 H -0.5591 1.7255 2.9508 0
M  V30 43 H -0.0479 -0.0045 6.0868 0
M  V30 44 H 1.1587 -0.9427 5.1935 0
M  V30 45 H 0.8053 0.7589 4.7331 0
M  V30 46 H 0.1064 3.1397 -0.6383 0
M  V30 47 H -0.2449 3.5936 1.0315 0
M  V30 48 H -3.6024 3.4439 -0.6265 0
M  V30 49 H -2.1565 4.4321 -0.6582 0
M  V30 50 H -5.4172 0.5745 1.2268 0
M  V30 51 H -4.2108 3.0143 -6.4173 0
M  V30 52 H -2.5848 2.6899 -5.7548 0
M  V30 53 H -4.0321 1.9127 -5.0236 0
M  V30 END ATOM
M  V30 BEGIN BOND
M  V30 1 1 1 2
M  V30 2 2 1 3
M  V30 3 1 1 4
M  V30 4 1 2 5
M  V30 5 1 3 6
M  V30 6 1 3 7
M  V30 7 1 4 8
M  V30 8 1 5 9
M  V30 9 1 7 10
M  V30 10 2 8 11
M  V30 11 1 8 12
M  V30 12 2 10 13
M  V30 13 1 10 14
M  V30 14 1 12 15
M  V30 15 1 15 16
M  V30 16 1 15 17
M  V30 17 1 15 18
M  V30 18 1 16 19
M  V30 19 2 17 20
M  V30 20 1 17 21
M  V30 21 1 18 22
M  V30 22 1 21 23
M  V30 23 1 22 24
M  V30 24 2 23 25
M  V30 25 1 23 26
M  V30 26 1 25 27
M  V30 27 2 26 28
M  V30 28 1 26 29
M  V30 29 1 27 30
M  V30 30 1 30 31
M  V30 31 2 31 32
M  V30 32 1 31 33
M  V30 33 1 32 34
M  V30 34 1 33 35
M  V30 35 1 33 36
M  V30 36 1 4 6
M  V30 37 2 5 7
M  V30 38 1 18 21
M  V30 39 1 24 25
M  V30 40 2 34 35
M  V30 41 1 4 37
M  V30 42 1 9 38
M  V30 43 1 9 39
M  V30 44 1 12 40
M  V30 45 1 14 41
M  V30 46 1 18 42
M  V30 47 1 19 43
M  V30 48 1 19 44
M  V30 49 1 19 45
M  V30 50 1 24 46
M  V30 51 1 24 47
M  V30 52 1 27 48
M  V30 53 1 27 49
M  V30 54 1 29 50
M  V30 55 1 36 51
M  V30 56 1 36 52
M  V30 57 1 36 53
M  V30 END BOND
M  V30 BEGIN COLLECTION
M  V30 MDLV30/STEABS ATOMS=(3 4 15 18)
M  V30 END COLLECTION
M  V30 END CTAB
M  END
>  <level_0>
6494

>  <index>
6494

>  <NO.>
6495

>  <Name>


>  <SMILES>
CO[C@@]1(NC(=O)[C@H]2SC3=S2OC(N)=C3C(=O)O)C(=O)N2C(C(=O)O)=C(CSc3nnnn3C)CS[C@@H]21

>  <logBB>


>  <Class>
-1

>  <MW>
575.0

>  <nHBAcc>
13

>  <nHBDon>
4

>  <SLogP>
-1.31

>  <TopoPSA>
212.09

>  <MMFF94 Energy>
40.139

$$$$
C[C@@H]1C(S[C@@H]2CN3C=NCN3C2)=C(C(=O)O)N2C(=O)[C@@H]([C@@H](C)O)[C@H]12
Actelion Java MolfileCreator 2.0

  0  0  0  0  0  0              0 V3000
M  V30 BEGIN CTAB
M  V30 COUNTS 44 47 0 0 0
M  V30 BEGIN ATOM
M  V30 1 S -1.1404 1.548 1.1404 0
M  V30 2 C -0.8168 0.0229 0.4104 0
M  V30 3 C 0.5381 2.3014 1.1472 0 CFG=2
M  V30 4 C -1.0371 -0.3301 -0.8662 0
M  V30 5 C -0.2328 -1.1387 1.1959 0 CFG=2
M  V30 6 C 0.5481 3.5979 1.98 0
M  V30 7 C 0.9919 2.7963 -0.2421 0
M  V30 8 N -0.5922 -1.601 -1.1104 0
M  V30 9 C -1.654 0.4484 -1.9582 0
M  V30 10 C 0.008 -2.1973 0.0971 0 CFG=2
M  V30 11 C -1.1416 -1.6633 2.2993 0
M  V30 12 N 0.5242 4.6311 0.9636 0
M  V30 13 N 0.4002 4.139 -0.3482 0
M  V30 14 C -1.3905 -2.6533 -1.4292 0
M  V30 15 O -1.2193 0.5354 -3.0936 0
M  V30 16 O -2.7979 1.0467 -1.5898 0
M  V30 17 C -0.8557 -3.4654 -0.2345 0 CFG=1
M  V30 18 C 1.3424 5.7152 0.9246 0
M  V30 19 C 1.2052 5.0924 -1.1304 0
M  V30 20 O -2.2556 -2.8024 -2.2589 0
M  V30 21 C -0.1652 -4.7806 -0.5611 0 CFG=2
M  V30 22 N 1.8271 6.0915 -0.2188 0
M  V30 23 O 0.5343 -5.1994 0.6114 0
M  V30 24 C 0.8204 -4.7002 -1.7181 0
M  V30 25 H 1.2407 1.5745 1.5673 0
M  V30 26 H 0.7324 -0.8467 1.6277 0
M  V30 27 H -0.2905 3.6967 2.6765 0
M  V30 28 H 1.4795 3.6579 2.5562 0
M  V30 29 H 2.0901 2.8426 -0.247 0
M  V30 30 H 0.6829 2.1521 -1.0692 0
M  V30 31 H 1.0865 -2.3508 -0.0432 0
M  V30 32 H -1.2261 -0.9376 3.1154 0
M  V30 33 H -0.743 -2.5929 2.7192 0
M  V30 34 H -2.154 -1.8669 1.9331 0
M  V30 35 H -3.102 1.5021 -2.4012 0
M  V30 36 H -1.6529 -3.6489 0.4987 0
M  V30 37 H 1.589 6.1836 1.8902 0
M  V30 38 H 1.9853 4.6022 -1.7245 0
M  V30 39 H 0.5478 5.6262 -1.8263 0
M  V30 40 H -0.9221 -5.5409 -0.7859 0
M  V30 41 H 0.8782 -6.0952 0.4407 0
M  V30 42 H 0.3341 -4.3878 -2.6467 0
M  V30 43 H 1.6402 -4.007 -1.5049 0
M  V30 44 H 1.283 -5.6789 -1.888 0
M  V30 END ATOM
M  V30 BEGIN BOND
M  V30 1 1 1 2
M  V30 2 1 1 3
M  V30 3 2 2 4
M  V30 4 1 2 5
M  V30 5 1 3 6
M  V30 6 1 3 7
M  V30 7 1 4 8
M  V30 8 1 4 9
M  V30 9 1 5 10
M  V30 10 1 5 11
M  V30 11 1 6 12
M  V30 12 1 7 13
M  V30 13 1 8 14
M  V30 14 2 9 15
M  V30 15 1 9 16
M  V30 16 1 10 17
M  V30 17 1 12 18
M  V30 18 1 13 19
M  V30 19 2 14 20
M  V30 20 1 17 21
M  V30 21 2 18 22
M  V30 22 1 21 23
M  V30 23 1 21 24
M  V30 24 1 8 10
M  V30 25 1 12 13
M  V30 26 1 14 17
M  V30 27 1 19 22
M  V30 28 1 3 25
M  V30 29 1 5 26
M  V30 30 1 6 27
M  V30 31 1 6 28
M  V30 32 1 7 29
M  V30 33 1 7 30
M  V30 34 1 10 31
M  V30 35 1 11 32
M  V30 36 1 11 33
M  V30 37 1 11 34
M  V30 38 1 16 35
M  V30 39 1 17 36
M  V30 40 1 18 37
M  V30 41 1 19 38
M  V30 42 1 19 39
M  V30 43 1 21 40
M  V30 44 1 23 41
M  V30 45 1 24 42
M  V30 46 1 24 43
M  V30 47 1 24 44
M  V30 END BOND
M  V30 BEGIN COLLECTION
M  V30 MDLV30/STEABS ATOMS=(5 3 5 10 17 21)
M  V30 END COLLECTION
M  V30 END CTAB
M  END
>  <level_0>
6562

>  <index>
6562

>  <NO.>
6563

>  <Name>


>  <SMILES>
C[C@@H]1C(S[C@@H]2CN3C=NCN3C2)=C(C(=O)O)N2C(=O)[C@@H]([C@@H](C)O)[C@H]12

>  <logBB>


>  <Class>
-1

>  <MW>
352.12

>  <nHBAcc>
7

>  <nHBDon>
2

>  <SLogP>
-0.23

>  <TopoPSA>
96.68

>  <MMFF94 Energy>
74.73

$$$$
C[C@H]1c2cccc(O)c2C(O)=C2C(=O)[C@@]3(O)C(O)=C(C(N)=O)C(=O)[C@@H](N(C)C)[C@H]3[C@@H](O)[C@H]21
Actelion Java MolfileCreator 2.0

  0  0  0  0  0  0              0 V3000
M  V30 BEGIN CTAB
M  V30 COUNTS 56 59 0 0 0
M  V30 BEGIN ATOM
M  V30 1 O -1.2889 -0.8054 3.5475 0
M  V30 2 C -0.803 -0.431 2.4793 0
M  V30 3 C -1.6784 0.0854 1.4025 0
M  V30 4 C 0.7083 -0.5413 2.1348 0 CFG=1
M  V30 5 C -2.6995 -0.6601 0.9566 0
M  V30 6 C -1.1997 1.3585 0.7861 0 CFG=1
M  V30 7 O 1.4259 -0.5886 3.3778 0
M  V30 8 C 0.9995 -1.8616 1.4437 0
M  V30 9 C 1.1858 0.6987 1.3434 0 CFG=2
M  V30 10 O -3.1322 -1.7963 1.605 0
M  V30 11 C -3.3369 -0.3253 -0.3459 0
M  V30 12 C 0.2102 1.1056 0.2046 0 CFG=1
M  V30 13 C -2.2748 1.9826 -0.1439 0 CFG=2
M  V30 14 O 0.2127 -2.9126 1.911 0
M  V30 15 C 1.9446 -2.0183 0.4868 0
M  V30 16 C 2.6448 0.4623 0.8976 0 CFG=1
M  V30 17 C -4.1394 -1.2336 -1.0708 0
M  V30 18 C -3.0836 0.9499 -0.924 0
M  V30 19 O 0.1927 0.1015 -0.8035 0
M  V30 20 C -1.6935 3.1391 -0.9698 0
M  V30 21 C 2.8321 -0.8589 0.1301 0
M  V30 22 C 2.1116 -3.3657 -0.1419 0
M  V30 23 N 3.2308 1.6824 0.2582 0
M  V30 24 O -4.3768 -2.4962 -0.5972 0
M  V30 25 C -4.6947 -0.8933 -2.3072 0
M  V30 26 C -3.6641 1.2761 -2.1652 0
M  V30 27 O 3.7479 -1.0292 -0.6811 0
M  V30 28 O 1.4129 -4.3257 0.1788 0
M  V30 29 N 3.0727 -3.503 -1.0874 0
M  V30 30 C 4.6114 1.8998 0.7063 0
M  V30 31 C 3.1927 1.7284 -1.2056 0
M  V30 32 C -4.458 0.3611 -2.8513 0
M  V30 33 H -1.072 2.0926 1.5974 0
M  V30 34 H 0.9374 -1.2375 3.9277 0
M  V30 35 H 1.2107 1.5441 2.0496 0
M  V30 36 H -2.6966 -1.8577 2.4781 0
M  V30 37 H 0.5742 2.0308 -0.2495 0
M  V30 38 H -3.0192 2.4466 0.5234 0
M  V30 39 H 0.4037 -3.7274 1.3881 0
M  V30 40 H 3.2105 0.2967 1.8274 0
M  V30 41 H -0.5031 0.3133 -1.4538 0
M  V30 42 H -1.0764 2.7767 -1.7987 0
M  V30 43 H -1.0813 3.7969 -0.3429 0
M  V30 44 H -2.4879 3.7642 -1.3917 0
M  V30 45 H -5.002 -2.9573 -1.1751 0
M  V30 46 H -5.3093 -1.5986 -2.8586 0
M  V30 47 H -3.523 2.2538 -2.6182 0
M  V30 48 H 3.6709 -2.7215 -1.3528 0
M  V30 49 H 3.2097 -4.3999 -1.5303 0
M  V30 50 H 5.2737 1.074 0.4242 0
M  V30 51 H 4.6492 2.02 1.7948 0
M  V30 52 H 5.0142 2.8264 0.2815 0
M  V30 53 H 3.9732 1.1234 -1.6782 0
M  V30 54 H 2.2302 1.4197 -1.617 0
M  V30 55 H 3.3476 2.7623 -1.5363 0
M  V30 56 H -4.8963 0.6306 -3.809 0
M  V30 END ATOM
M  V30 BEGIN BOND
M  V30 1 2 1 2
M  V30 2 1 2 3
M  V30 3 1 2 4
M  V30 4 2 3 5
M  V30 5 1 3 6
M  V30 6 1 4 7
M  V30 7 1 4 8
M  V30 8 1 4 9
M  V30 9 1 5 10
M  V30 10 1 5 11
M  V30 11 1 6 12
M  V30 12 1 6 13
M  V30 13 1 8 14
M  V30 14 2 8 15
M  V30 15 1 9 16
M  V30 16 2 11 17
M  V30 17 1 11 18
M  V30 18 1 12 19
M  V30 19 1 13 20
M  V30 20 1 15 21
M  V30 21 1 15 22
M  V30 22 1 16 23
M  V30 23 1 17 24
M  V30 24 1 17 25
M  V30 25 2 18 26
M  V30 26 2 21 27
M  V30 27 2 22 28
M  V30 28 1 22 29
M  V30 29 1 23 30
M  V30 30 1 23 31
M  V30 31 2 25 32
M  V30 32 1 9 12
M  V30 33 1 13 18
M  V30 34 1 16 21
M  V30 35 1 26 32
M  V30 36 1 6 33
M  V30 37 1 7 34
M  V30 38 1 9 35
M  V30 39 1 10 36
M  V30 40 1 12 37
M  V30 41 1 13 38
M  V30 42 1 14 39
M  V30 43 1 16 40
M  V30 44 1 19 41
M  V30 45 1 20 42
M  V30 46 1 20 43
M  V30 47 1 20 44
M  V30 48 1 24 45
M  V30 49 1 25 46
M  V30 50 1 26 47
M  V30 51 1 29 48
M  V30 52 1 29 49
M  V30 53 1 30 50
M  V30 54 1 30 51
M  V30 55 1 30 52
M  V30 56 1 31 53
M  V30 57 1 31 54
M  V30 58 1 31 55
M  V30 59 1 32 56
M  V30 END BOND
M  V30 BEGIN COLLECTION
M  V30 MDLV30/STEABS ATOMS=(6 4 6 9 12 13 16)
M  V30 END COLLECTION
M  V30 END CTAB
M  END
>  <level_0>
6640

>  <index>
6640

>  <NO.>
6641

>  <Name>
zinc1851098

>  <SMILES>
C[C@H]1c2cccc(O)c2C(O)=C2C(=O)[C@@]3(O)C(O)=C(C(N)=O)C(=O)[C@@H](N(C)C)[C@H]3[C@@H](O)[C@H]21

>  <logBB>


>  <Class>
-1

>  <MW>
444.15

>  <nHBAcc>
9

>  <nHBDon>
6

>  <SLogP>
-0.5

>  <TopoPSA>
181.62

>  <MMFF94 Energy>
108.79

$$$$
Cc1ccc(C(=O)N[C@@H]2C(=O)N[C@H](C(C)C)C(=O)N3CCC[C@@H]3C(=O)N(C)CC(=O)N(C)[C@@H](C(C)C)C(=O)O[C@H]2C)c2c1OC1=C(N2)C(C(=O)N[C@H]2C(=O)N[C@@H](C(C)C)C(=O)N3CCC[C@H]3C(=O)N(C)CC(=O)N(C)[C@H](C(C)C)C(=O)O[C@@H]2C)=C(N)C(=O)[C@@H]1C
Actelion Java MolfileCreator 2.0

  0  0  0  0  0  0              0 V3000
M  V30 BEGIN CTAB
M  V30 COUNTS 178 184 0 0 0
M  V30 BEGIN ATOM
M  V30 1 O -4.3792 1.2724 -4.2197 0
M  V30 2 C -3.3907 0.5499 -4.2211 0
M  V30 3 O -3.0249 -0.2301 -3.1644 0
M  V30 4 C -2.4584 0.3195 -5.4395 0 CFG=2
M  V30 5 C -3.8299 -0.1576 -1.9618 0 CFG=1
M  V30 6 N -1.076 -0.1467 -5.1242 0
M  V30 7 C -2.4238 1.4893 -6.4656 0
M  V30 8 C -3.8444 -1.5714 -1.3408 0 CFG=1
M  V30 9 C -3.1623 0.8767 -1.0587 0
M  V30 10 C -0.5252 -1.1472 -5.9231 0
M  V30 11 C -0.3676 0.4646 -4.0073 0
M  V30 12 C -3.746 1.6225 -7.2314 0
M  V30 13 C -2.0253 2.8406 -5.8688 0
M  V30 14 N -4.2923 -1.6066 0.0506 0
M  V30 15 C -4.8578 -2.4506 -2.0926 0
M  V30 16 O -1.082 -1.5136 -6.9628 0
M  V30 17 C 0.8375 -1.7534 -5.5158 0
M  V30 18 C -3.4215 -1.8161 1.0894 0
M  V30 19 O -6.0189 -2.0773 -2.2824 0
M  V30 20 N -4.5371 -3.7338 -2.4301 0
M  V30 21 N 0.8701 -3.2201 -5.6326 0
M  V30 22 O -2.2061 -1.909 0.9537 0
M  V30 23 C -4.0693 -1.8967 2.4298 0
M  V30 24 C -3.3051 -4.4703 -2.1275 0 CFG=2
M  V30 25 C 0.5015 -4.1012 -4.6178 0
M  V30 26 C 1.0335 -3.7635 -6.9727 0
M  V30 27 C -3.7507 -0.8886 3.4338 0
M  V30 28 C -4.8941 -2.9425 2.6407 0
M  V30 29 C -2.1222 -3.9064 -2.9504 0
M  V30 30 C -3.4642 -5.9952 -2.3387 0
M  V30 31 O 0.4098 -5.3189 -4.8165 0
M  V30 32 C 0.29 -3.5422 -3.1929 0 CFG=1
M  V30 33 N -2.85 0.1171 3.1615 0
M  V30 34 C -4.3605 -0.9207 4.6367 0
M  V30 35 N -5.237 -3.9446 1.7608 0
M  V30 36 C -5.5374 -3.061 4.0048 0
M  V30 37 O -2.3192 -3.2121 -3.9512 0
M  V30 38 N -0.8443 -4.1703 -2.512 0
M  V30 39 C -4.5025 -6.5808 -1.3765 0
M  V30 40 C -3.8082 -6.3774 -3.7824 0
M  V30 41 C 1.5027 -3.9007 -2.3256 0
M  V30 42 C -2.5875 1.1373 4.0924 0
M  V30 43 O -4.0986 0.0208 5.6338 0
M  V30 44 C -5.3636 -1.9591 5.0412 0 CFG=2
M  V30 45 O -6.2308 -4.057 4.2436 0
M  V30 46 C -0.4186 -4.8551 -1.3035 0
M  V30 47 C 0.9007 -4.1875 -0.9579 0
M  V30 48 C -3.2416 1.0681 5.3409 0
M  V30 49 C -1.7229 2.2179 3.8353 0
M  V30 50 C -6.729 -1.3313 5.3236 0
M  V30 51 C -3.0604 2.0473 6.327 0
M  V30 52 C -1.0106 2.3132 2.5221 0
M  V30 53 C -1.5662 3.2173 4.8125 0
M  V30 54 C -2.223 3.1287 6.0446 0
M  V30 55 C -3.7712 1.958 7.6462 0
M  V30 56 O -1.3858 1.6699 1.5448 0
M  V30 57 N 0.1066 3.1127 2.4638 0
M  V30 58 C 0.8363 3.3946 1.2172 0 CFG=2
M  V30 59 C 1.7877 2.2222 0.878 0
M  V30 60 C 1.581 4.7548 1.3147 0 CFG=1
M  V30 61 O 3.0049 2.3428 0.7997 0
M  V30 62 N 1.1784 1.018 0.635 0
M  V30 63 O 2.8015 4.6735 2.0897 0
M  V30 64 C 1.9508 5.2833 -0.0694 0
M  V30 65 C 1.9111 -0.2392 0.4656 0 CFG=1
M  V30 66 C 2.7006 4.6388 3.4399 0
M  V30 67 C 2.5894 -0.3188 -0.9363 0
M  V30 68 C 2.7335 -0.6549 1.7088 0
M  V30 69 O 1.6359 4.7855 4.0395 0
M  V30 70 C 4.0461 4.4124 4.1644 0 CFG=1
M  V30 71 O 1.8923 -0.3569 -1.9592 0
M  V30 72 N 3.9711 -0.3464 -1.039 0
M  V30 73 C 1.9085 -0.5228 3.0008 0
M  V30 74 C 3.2245 -2.1047 1.6158 0
M  V30 75 N 4.9578 3.511 3.4067 0
M  V30 76 C 4.6785 5.7385 4.672 0
M  V30 77 C 4.7362 0.9184 -1.1194 0 CFG=1
M  V30 78 C 4.5603 -1.3248 -1.9439 0
M  V30 79 C 5.7169 3.9896 2.3445 0
M  V30 80 C 4.8466 2.1011 3.7607 0
M  V30 81 C 3.7404 6.4835 5.6338 0
M  V30 82 C 6.0088 5.4871 5.3946 0
M  V30 83 C 5.5651 1.2842 0.1419 0
M  V30 84 C 5.7081 0.6982 -2.2925 0
M  V30 85 C 5.9446 -0.802 -2.2645 0
M  V30 86 O 5.6625 5.1755 1.9965 0
M  V30 87 C 6.6172 3.0271 1.5379 0
M  V30 88 O 5.8987 0.4129 0.9516 0
M  V30 89 N 5.9933 2.6062 0.2786 0
M  V30 90 C 5.7123 3.6728 -0.6753 0
M  V30 91 H -2.945 -0.5248 -5.9485 0
M  V30 92 H -4.8509 0.1714 -2.1885 0
M  V30 93 H -1.6645 1.2447 -7.2214 0
M  V30 94 H -2.8404 -1.9936 -1.4042 0
M  V30 95 H -2.1365 0.5755 -0.82 0
M  V30 96 H -3.7183 1.0239 -0.1284 0
M  V30 97 H -3.0915 1.8441 -1.5679 0
M  V30 98 H -0.8258 1.4135 -3.7205 0
M  V30 99 H -0.4038 -0.2178 -3.1557 0
M  V30 100 H 0.6724 0.653 -4.2856 0
M  V30 101 H -4.0446 0.6636 -7.6675 0
M  V30 102 H -3.6391 2.3378 -8.0545 0
M  V30 103 H -4.5603 1.9786 -6.5945 0
M  V30 104 H -2.6967 3.1491 -5.0622 0
M  V30 105 H -2.0512 3.622 -6.6366 0
M  V30 106 H -1.0044 2.8155 -5.4782 0
M  V30 107 H -5.2897 -1.5226 0.2273 0
M  V30 108 H 1.5945 -1.3354 -6.1899 0
M  V30 109 H 1.1418 -1.4691 -4.5115 0
M  V30 110 H -5.259 -4.1919 -2.9726 0
M  V30 111 H -3.1032 -4.2741 -1.0696 0
M  V30 112 H 1.782 -3.1825 -7.5188 0
M  V30 113 H 0.075 -3.7244 -7.4966 0
M  V30 114 H 1.3642 -4.8056 -6.9385 0
M  V30 115 H -2.5089 -6.48 -2.1067 0
M  V30 116 H 0.093 -2.4722 -3.1725 0
M  V30 117 H -2.3731 0.1629 2.2592 0
M  V30 118 H -5.8644 -4.6694 2.1115 0
M  V30 119 H -4.8906 -3.9805 0.8119 0
M  V30 120 H -5.5063 -6.1915 -1.5755 0
M  V30 121 H -4.543 -7.6714 -1.4701 0
M  V30 122 H -4.2451 -6.3463 -0.3381 0
M  V30 123 H -3.0555 -6.0024 -4.4829 0
M  V30 124 H -3.8394 -7.4673 -3.8902 0
M  V30 125 H -4.7844 -5.9899 -4.0894 0
M  V30 126 H 2.0159 -4.7964 -2.6966 0
M  V30 127 H 2.2381 -3.0946 -2.2964 0
M  V30 128 H -4.992 -2.4488 5.9508 0
M  V30 129 H -1.1448 -4.7766 -0.4931 0
M  V30 130 H -0.2688 -5.9105 -1.5544 0
M  V30 131 H 0.7148 -3.2448 -0.431 0
M  V30 132 H 1.5417 -4.813 -0.3311 0
M  V30 133 H -7.1365 -0.8451 4.4294 0
M  V30 134 H -7.4526 -2.0907 5.6404 0
M  V30 135 H -6.6685 -0.5815 6.12 0
M  V30 136 H -0.9546 4.0982 4.6355 0
M  V30 137 H -2.0787 3.9199 6.7786 0
M  V30 138 H -3.464 2.7627 8.3227 0
M  V30 139 H -4.8531 2.0378 7.4985 0
M  V30 140 H -3.5412 1.008 8.1394 0
M  V30 141 H 0.4722 3.5438 3.3089 0
M  V30 142 H 0.0868 3.4521 0.4172 0
M  V30 143 H 0.9233 5.5045 1.7753 0
M  V30 144 H 0.1606 0.975 0.7103 0
M  V30 145 H 1.0556 5.4714 -0.6703 0
M  V30 146 H 2.5862 4.5798 -0.6143 0
M  V30 147 H 2.5152 6.2181 0.0171 0
M  V30 148 H 1.1038 -0.9829 0.3868 0
M  V30 149 H 3.6041 -0.0045 1.8114 0
M  V30 150 H 3.7727 3.8407 5.0643 0
M  V30 151 H 1.6332 0.5166 3.2005 0
M  V30 152 H 2.4831 -0.8715 3.866 0
M  V30 153 H 0.9879 -1.1143 2.9459 0
M  V30 154 H 2.3858 -2.8011 1.5124 0
M  V30 155 H 3.7795 -2.3828 2.5187 0
M  V30 156 H 3.8976 -2.2579 0.7714 0
M  V30 157 H 4.8628 6.4166 3.8319 0
M  V30 158 H 4.0371 1.7281 -1.3491 0
M  V30 159 H 3.9571 -1.3964 -2.8566 0
M  V30 160 H 4.5792 -2.3089 -1.4679 0
M  V30 161 H 5.4513 1.4379 3.1536 0
M  V30 162 H 3.8004 1.8001 3.6575 0
M  V30 163 H 5.1514 1.983 4.8052 0
M  V30 164 H 3.4457 5.8478 6.4756 0
M  V30 165 H 4.2291 7.3759 6.0405 0
M  V30 166 H 2.8337 6.8226 5.1239 0
M  V30 167 H 6.7596 5.0576 4.7253 0
M  V30 168 H 6.4233 6.4241 5.7825 0
M  V30 169 H 5.8756 4.8029 6.2396 0
M  V30 170 H 6.6461 1.2558 -2.2154 0
M  V30 171 H 5.2205 0.9773 -3.235 0
M  V30 172 H 6.6493 -1.0621 -1.4661 0
M  V30 173 H 6.3338 -1.1909 -3.2092 0
M  V30 174 H 6.9562 2.1812 2.1361 0
M  V30 175 H 7.53 3.5796 1.2808 0
M  V30 176 H 4.8426 4.2358 -0.3325 0
M  V30 177 H 5.5073 3.2946 -1.6764 0
M  V30 178 H 6.5785 4.3384 -0.7376 0
M  V30 END ATOM
M  V30 BEGIN BOND
M  V30 1 2 1 2
M  V30 2 1 2 3
M  V30 3 1 2 4
M  V30 4 1 3 5
M  V30 5 1 4 6
M  V30 6 1 4 7
M  V30 7 1 5 8
M  V30 8 1 5 9
M  V30 9 1 6 10
M  V30 10 1 6 11
M  V30 11 1 7 12
M  V30 12 1 7 13
M  V30 13 1 8 14
M  V30 14 1 8 15
M  V30 15 2 10 16
M  V30 16 1 10 17
M  V30 17 1 14 18
M  V30 18 2 15 19
M  V30 19 1 15 20
M  V30 20 1 17 21
M  V30 21 2 18 22
M  V30 22 1 18 23
M  V30 23 1 20 24
M  V30 24 1 21 25
M  V30 25 1 21 26
M  V30 26 1 23 27
M  V30 27 2 23 28
M  V30 28 1 24 29
M  V30 29 1 24 30
M  V30 30 2 25 31
M  V30 31 1 25 32
M  V30 32 1 27 33
M  V30 33 2 27 34
M  V30 34 1 28 35
M  V30 35 1 28 36
M  V30 36 2 29 37
M  V30 37 1 29 38
M  V30 38 1 30 39
M  V30 39 1 30 40
M  V30 40 1 32 41
M  V30 41 1 33 42
M  V30 42 1 34 43
M  V30 43 1 34 44
M  V30 44 2 36 45
M  V30 45 1 38 46
M  V30 46 1 41 47
M  V30 47 2 42 48
M  V30 48 1 42 49
M  V30 49 1 44 50
M  V30 50 1 48 51
M  V30 51 1 49 52
M  V30 52 2 49 53
M  V30 53 2 51 54
M  V30 54 1 51 55
M  V30 55 2 52 56
M  V30 56 1 52 57
M  V30 57 1 57 58
M  V30 58 1 58 59
M  V30 59 1 58 60
M  V30 60 2 59 61
M  V30 61 1 59 62
M  V30 62 1 60 63
M  V30 63 1 60 64
M  V30 64 1 62 65
M  V30 65 1 63 66
M  V30 66 1 65 67
M  V30 67 1 65 68
M  V30 68 2 66 69
M  V30 69 1 66 70
M  V30 70 2 67 71
M  V30 71 1 67 72
M  V30 72 1 68 73
M  V30 73 1 68 74
M  V30 74 1 70 75
M  V30 75 1 70 76
M  V30 76 1 72 77
M  V30 77 1 72 78
M  V30 78 1 75 79
M  V30 79 1 75 80
M  V30 80 1 76 81
M  V30 81 1 76 82
M  V30 82 1 77 83
M  V30 83 1 77 84
M  V30 84 1 78 85
M  V30 85 2 79 86
M  V30 86 1 79 87
M  V30 87 2 83 88
M  V30 88 1 83 89
M  V30 89 1 89 90
M  V30 90 1 32 38
M  V30 91 1 36 44
M  V30 92 1 43 48
M  V30 93 1 46 47
M  V30 94 1 53 54
M  V30 95 1 84 85
M  V30 96 1 87 89
M  V30 97 1 4 91
M  V30 98 1 5 92
M  V30 99 1 7 93
M  V30 100 1 8 94
M  V30 101 1 9 95
M  V30 102 1 9 96
M  V30 103 1 9 97
M  V30 104 1 11 98
M  V30 105 1 11 99
M  V30 106 1 11 100
M  V30 107 1 12 101
M  V30 108 1 12 102
M  V30 109 1 12 103
M  V30 110 1 13 104
M  V30 111 1 13 105
M  V30 112 1 13 106
M  V30 113 1 14 107
M  V30 114 1 17 108
M  V30 115 1 17 109
M  V30 116 1 20 110
M  V30 117 1 24 111
M  V30 118 1 26 112
M  V30 119 1 26 113
M  V30 120 1 26 114
M  V30 121 1 30 115
M  V30 122 1 32 116
M  V30 123 1 33 117
M  V30 124 1 35 118
M  V30 125 1 35 119
M  V30 126 1 39 120
M  V30 127 1 39 121
M  V30 128 1 39 122
M  V30 129 1 40 123
M  V30 130 1 40 124
M  V30 131 1 40 125
M  V30 132 1 41 126
M  V30 133 1 41 127
M  V30 134 1 44 128
M  V30 135 1 46 129
M  V30 136 1 46 130
M  V30 137 1 47 131
M  V30 138 1 47 132
M  V30 139 1 50 133
M  V30 140 1 50 134
M  V30 141 1 50 135
M  V30 142 1 53 136
M  V30 143 1 54 137
M  V30 144 1 55 138
M  V30 145 1 55 139
M  V30 146 1 55 140
M  V30 147 1 57 141
M  V30 148 1 58 142
M  V30 149 1 60 143
M  V30 150 1 62 144
M  V30 151 1 64 145
M  V30 152 1 64 146
M  V30 153 1 64 147
M  V30 154 1 65 148
M  V30 155 1 68 149
M  V30 156 1 70 150
M  V30 157 1 73 151
M  V30 158 1 73 152
M  V30 159 1 73 153
M  V30 160 1 74 154
M  V30 161 1 74 155
M  V30 162 1 74 156
M  V30 163 1 76 157
M  V30 164 1 77 158
M  V30 165 1 78 159
M  V30 166 1 78 160
M  V30 167 1 80 161
M  V30 168 1 80 162
M  V30 169 1 80 163
M  V30 170 1 81 164
M  V30 171 1 81 165
M  V30 172 1 81 166
M  V30 173 1 82 167
M  V30 174 1 82 168
M  V30 175 1 82 169
M  V30 176 1 84 170
M  V30 177 1 84 171
M  V30 178 1 85 172
M  V30 179 1 85 173
M  V30 180 1 87 174
M  V30 181 1 87 175
M  V30 182 1 90 176
M  V30 183 1 90 177
M  V30 184 1 90 178
M  V30 END BOND
M  V30 BEGIN COLLECTION
M  V30 MDLV30/STEABS ATOMS=(11 4 5 8 24 32 44 58 60 65 70 77)
M  V30 END COLLECTION
M  V30 END CTAB
M  END
>  <level_0>
6660

>  <index>
6660

>  <NO.>
6661

>  <Name>


>  <SMILES>
Cc1ccc(C(=O)N[C@@H]2C(=O)N[C@H](C(C)C)C(=O)N3CCC[C@@H]3C(=O)N(C)CC(=O)N(C)[C@@H](C(C)C)C(=O)O[C@H]2C)c2c1OC1=C(N2)C(C(=O)N[C@H]2C(=O)N[C@@H](C(C)C)C(=O)N3CCC[C@H]3C(=O)N(C)CC(=O)N(C)[C@H](C(C)C)C(=O)O[C@@H]2C)=C(N)C(=O)[C@@H]1C

>  <logBB>


>  <Class>
-1

>  <MW>
1256.64

>  <nHBAcc>
18

>  <nHBDon>
6

>  <SLogP>
0.06

>  <TopoPSA>
355.21

>  <MMFF94 Energy>
337.88

$$$$
NC(=O)C1C=CN(C[C@H]2CS[C@@H]3[C@@H](NC(=O)[C@H](c4ccccc4)S(=O)(=O)O)C(=O)N3[C@H]2C(=O)O)C=C1
Actelion Java MolfileCreator 2.0

  0  0  0  0  0  0              0 V3000
M  V30 BEGIN CTAB
M  V30 COUNTS 60 63 0 0 0
M  V30 BEGIN ATOM
M  V30 1 S 2.5437 -5.2569 3.1188 0
M  V30 2 O 3.8054 -4.607 2.8389 0
M  V30 3 O 2.0688 -6.3926 2.3586 0
M  V30 4 O 2.6881 -5.7707 4.6498 0
M  V30 5 C 1.2053 -4.086 3.3612 0 CFG=1
M  V30 6 C 1.5894 -3.0432 4.3973 0
M  V30 7 C 0.8092 -3.4854 2.0325 0
M  V30 8 C 1.0632 -3.1266 5.6977 0
M  V30 9 C 2.4607 -1.9847 4.0916 0
M  V30 10 O 1.5384 -3.4121 1.0504 0
M  V30 11 N -0.4711 -2.9551 2.0161 0
M  V30 12 C 1.3975 -2.1749 6.6624 0
M  V30 13 C 2.7915 -1.0349 5.059 0
M  V30 14 C -1.0432 -2.2956 0.8026 0 CFG=1
M  V30 15 C 2.2598 -1.1293 6.3425 0
M  V30 16 C -2.0847 -1.1737 1.1459 0
M  V30 17 C -0.2264 -1.1143 0.1843 0 CFG=2
M  V30 18 O -3.1017 -1.0708 1.788 0
M  V30 19 N -1.3851 -0.2774 0.4368 0
M  V30 20 S -0.031 -1.1561 -1.6193 0
M  V30 21 C -1.5556 1.1162 0.1201 0 CFG=1
M  V30 22 C 0.0462 0.6652 -1.8333 0
M  V30 23 C -0.6906 1.9415 1.0738 0
M  V30 24 C -1.247 1.369 -1.3709 0 CFG=2
M  V30 25 O 0.4275 1.6683 1.4786 0
M  V30 26 O -1.2695 3.1089 1.4231 0
M  V30 27 C -1.2183 2.8806 -1.6743 0
M  V30 28 N -1.2243 3.1571 -3.1213 0
M  V30 29 C -2.3919 3.0159 -3.8662 0
M  V30 30 C -0.0638 3.5575 -3.7775 0
M  V30 31 C -2.459 3.2383 -5.1873 0
M  V30 32 C -0.0073 3.809 -5.0939 0
M  V30 33 C -1.2355 3.6686 -5.9649 0
M  V30 34 C -0.9579 2.6381 -7.0742 0
M  V30 35 O -0.6176 1.4729 -6.8925 0
M  V30 36 N -1.1203 3.101 -8.3532 0
M  V30 37 H 3.5587 -5.4579 4.9827 0
M  V30 38 H 0.3571 -4.6842 3.7196 0
M  V30 39 H 0.3926 -3.9377 5.9777 0
M  V30 40 H 2.9011 -1.8881 3.0983 0
M  V30 41 H -1.0319 -2.9747 2.8636 0
M  V30 42 H 0.9861 -2.2494 7.6665 0
M  V30 43 H 3.468 -0.2208 4.8086 0
M  V30 44 H -1.4383 -3.0395 0.1017 0
M  V30 45 H 2.5204 -0.3883 7.0943 0
M  V30 46 H 0.661 -0.8059 0.7449 0
M  V30 47 H -2.6031 1.3639 0.3346 0
M  V30 48 H 0.9199 1.049 -1.2958 0
M  V30 49 H 0.2169 0.8362 -2.8999 0
M  V30 50 H -2.073 0.9232 -1.9444 0
M  V30 51 H -0.636 3.5219 2.0493 0
M  V30 52 H -0.3413 3.3484 -1.209 0
M  V30 53 H -2.0968 3.3656 -1.2283 0
M  V30 54 H -3.2669 2.7018 -3.3041 0
M  V30 55 H 0.82 3.648 -3.1527 0
M  V30 56 H -3.3937 3.1035 -5.7201 0
M  V30 57 H 0.927 4.1057 -5.5573 0
M  V30 58 H -1.4444 4.6456 -6.4176 0
M  V30 59 H -1.4022 4.0441 -8.5769 0
M  V30 60 H -0.9474 2.4475 -9.1059 0
M  V30 END ATOM
M  V30 BEGIN BOND
M  V30 1 2 1 2
M  V30 2 2 1 3
M  V30 3 1 1 4
M  V30 4 1 1 5
M  V30 5 1 5 6
M  V30 6 1 5 7
M  V30 7 2 6 8
M  V30 8 1 6 9
M  V30 9 2 7 10
M  V30 10 1 7 11
M  V30 11 1 8 12
M  V30 12 2 9 13
M  V30 13 1 11 14
M  V30 14 2 12 15
M  V30 15 1 14 16
M  V30 16 1 14 17
M  V30 17 2 16 18
M  V30 18 1 16 19
M  V30 19 1 17 20
M  V30 20 1 19 21
M  V30 21 1 20 22
M  V30 22 1 21 23
M  V30 23 1 21 24
M  V30 24 2 23 25
M  V30 25 1 23 26
M  V30 26 1 24 27
M  V30 27 1 27 28
M  V30 28 1 28 29
M  V30 29 1 28 30
M  V30 30 2 29 31
M  V30 31 2 30 32
M  V30 32 1 31 33
M  V30 33 1 33 34
M  V30 34 2 34 35
M  V30 35 1 34 36
M  V30 36 1 13 15
M  V30 37 1 17 19
M  V30 38 1 22 24
M  V30 39 1 32 33
M  V30 40 1 4 37
M  V30 41 1 5 38
M  V30 42 1 8 39
M  V30 43 1 9 40
M  V30 44 1 11 41
M  V30 45 1 12 42
M  V30 46 1 13 43
M  V30 47 1 14 44
M  V30 48 1 15 45
M  V30 49 1 17 46
M  V30 50 1 21 47
M  V30 51 1 22 48
M  V30 52 1 22 49
M  V30 53 1 24 50
M  V30 54 1 26 51
M  V30 55 1 27 52
M  V30 56 1 27 53
M  V30 57 1 29 54
M  V30 58 1 30 55
M  V30 59 1 31 56
M  V30 60 1 32 57
M  V30 61 1 33 58
M  V30 62 1 36 59
M  V30 63 1 36 60
M  V30 END BOND
M  V30 BEGIN COLLECTION
M  V30 MDLV30/STEABS ATOMS=(5 5 14 17 21 24)
M  V30 END COLLECTION
M  V30 END CTAB
M  END
>  <level_0>
6691

>  <index>
6691

>  <NO.>
6692

>  <Name>


>  <SMILES>
NC(=O)C1C=CN(C[C@H]2CS[C@@H]3[C@@H](NC(=O)[C@H](c4ccccc4)S(=O)(=O)O)C(=O)N3[C@H]2C(=O)O)C=C1

>  <logBB>


>  <Class>
-1

>  <MW>
536.1

>  <nHBAcc>
8

>  <nHBDon>
4

>  <SLogP>
-0.47

>  <TopoPSA>
187.41

>  <MMFF94 Energy>
-13.835

$$$$
NC1=NCc2ncn(COCCO)c2N1
Actelion Java MolfileCreator 2.0

  0  0  0  0  0  0              0 V3000
M  V30 BEGIN CTAB
M  V30 COUNTS 28 29 0 0 0
M  V30 BEGIN ATOM
M  V30 1 O 0.4686 0.3123 1.4063 0
M  V30 2 C 1.6234 -0.3733 0.9125 0
M  V30 3 C 0.566 0.5164 2.8155 0
M  V30 4 N 1.5328 -0.5448 -0.5244 0
M  V30 5 C -0.6562 1.284 3.3041 0
M  V30 6 C 0.4499 -0.4988 -1.3361 0
M  V30 7 C 2.5972 -0.8629 -1.341 0
M  V30 8 O -0.5755 1.4766 4.7088 0
M  V30 9 N -0.8328 -0.2284 -1.0614 0
M  V30 10 C 0.8853 -0.7857 -2.5975 0
M  V30 11 N 2.2351 -1.0145 -2.6026 0
M  V30 12 C -1.731 -0.2497 -2.0994 0
M  V30 13 C -0.0657 -0.8134 -3.7408 0
M  V30 14 N -1.4807 -0.5048 -3.3457 0
M  V30 15 N -2.9969 0.0297 -1.7274 0
M  V30 16 H 1.6922 -1.3729 1.3547 0
M  V30 17 H 2.5269 0.21 1.1207 0
M  V30 18 H 1.4753 1.0814 3.054 0
M  V30 19 H 0.6289 -0.4499 3.33 0
M  V30 20 H -0.7171 2.2593 2.8096 0
M  V30 21 H -1.5732 0.7334 3.0688 0
M  V30 22 H 3.6056 -0.9748 -0.9643 0
M  V30 23 H -1.3599 1.9892 4.9726 0
M  V30 24 H -1.1271 0.0425 -0.1328 0
M  V30 25 H -0.0519 -1.8048 -4.2055 0
M  V30 26 H 0.2436 -0.0808 -4.4936 0
M  V30 27 H -3.2842 0.1596 -0.7733 0
M  V30 28 H -3.6979 0.0206 -2.4562 0
M  V30 END ATOM
M  V30 BEGIN BOND
M  V30 1 1 1 2
M  V30 2 1 1 3
M  V30 3 1 2 4
M  V30 4 1 3 5
M  V30 5 1 4 6
M  V30 6 1 4 7
M  V30 7 1 5 8
M  V30 8 1 6 9
M  V30 9 2 6 10
M  V30 10 2 7 11
M  V30 11 1 9 12
M  V30 12 1 10 13
M  V30 13 2 12 14
M  V30 14 1 12 15
M  V30 15 1 10 11
M  V30 16 1 13 14
M  V30 17 1 2 16
M  V30 18 1 2 17
M  V30 19 1 3 18
M  V30 20 1 3 19
M  V30 21 1 5 20
M  V30 22 1 5 21
M  V30 23 1 7 22
M  V30 24 1 8 23
M  V30 25 1 9 24
M  V30 26 1 13 25
M  V30 27 1 13 26
M  V30 28 1 15 27
M  V30 29 1 15 28
M  V30 END BOND
M  V30 END CTAB
M  END
>  <level_0>
6698

>  <index>
6698

>  <NO.>
6699

>  <Name>
2-amino-9-[(2-hydroxyethoxy)methyl]-6,9-dihydro-1h-purine

>  <SMILES>
NC1=NCc2ncn(COCCO)c2N1

>  <logBB>


>  <Class>
1

>  <MW>
211.11

>  <nHBAcc>
6

>  <nHBDon>
3

>  <SLogP>
-0.91

>  <TopoPSA>
97.69

>  <MMFF94 Energy>
-30.124

$$$$
NNO
Actelion Java MolfileCreator 2.0

  0  0  0  0  0  0              0 V3000
M  V30 BEGIN CTAB
M  V30 COUNTS 7 6 0 0 0
M  V30 BEGIN ATOM
M  V30 1 O 0.7925 -0.9367 0.7204 0
M  V30 2 N 0.5325 0.17 -0.1749 0
M  V30 3 N -0.8444 0.179 -0.5147 0
M  V30 4 H 1.1732 -0.4726 1.4884 0
M  V30 5 H 1.1119 -0.0807 -0.9886 0
M  V30 6 H -1.4241 0.1558 0.3263 0
M  V30 7 H -1.0978 1.043 -0.9994 0
M  V30 END ATOM
M  V30 BEGIN BOND
M  V30 1 1 1 2
M  V30 2 1 2 3
M  V30 3 1 1 4
M  V30 4 1 2 5
M  V30 5 1 3 6
M  V30 6 1 3 7
M  V30 END BOND
M  V30 END CTAB
M  END
>  <level_0>
6715

>  <index>
6715

>  <NO.>
6716

>  <Name>
hydrazino alcohol

>  <SMILES>
NNO

>  <logBB>


>  <Class>
1

>  <MW>
48.03

>  <nHBAcc>
3

>  <nHBDon>
3

>  <SLogP>
-1.16

>  <TopoPSA>
58.28

>  <MMFF94 Energy>
21.784

$$$$
N[C@H]1N=C(Cl)Nc2c1ncn2[C@H]1C[C@@H](O)[C@@H](CO)O1
Actelion Java MolfileCreator 2.0

  0  0  0  0  0  0              0 V3000
M  V30 BEGIN CTAB
M  V30 COUNTS 33 35 0 0 0
M  V30 BEGIN ATOM
M  V30 1 Cl -1.5309 -1.289 -5.083 0
M  V30 2 C -0.2697 -0.9228 -3.9798 0
M  V30 3 N 0.9452 -1.067 -4.385 0
M  V30 4 N -0.7268 -0.5158 -2.7431 0
M  V30 5 C 2.0312 -0.7139 -3.4436 0 CFG=2
M  V30 6 C 0.1954 -0.2652 -1.8034 0
M  V30 7 N 2.9569 -1.8289 -3.3308 0
M  V30 8 C 1.5343 -0.357 -2.0708 0
M  V30 9 N 0.0813 0.0766 -0.4914 0
M  V30 10 N 2.2713 -0.1055 -0.9446 0
M  V30 11 C 1.3701 0.1503 -0.0125 0
M  V30 12 C -1.1379 0.2996 0.26 0 CFG=2
M  V30 13 O -0.9784 1.4606 1.1055 0
M  V30 14 C -1.5727 -0.8736 1.1376 0
M  V30 15 C -1.5141 1.1151 2.4005 0 CFG=1
M  V30 16 C -1.2676 -0.3879 2.5381 0 CFG=2
M  V30 17 C -0.8853 1.9958 3.4757 0
M  V30 18 O 0.0814 -0.7363 2.8275 0
M  V30 19 O 0.524 1.7832 3.5438 0
M  V30 20 H -1.7293 -0.4657 -2.6229 0
M  V30 21 H 2.5666 0.1502 -3.8524 0
M  V30 22 H 2.4183 -2.6312 -3.0187 0
M  V30 23 H 3.5884 -1.6058 -2.5599 0
M  V30 24 H 1.5927 0.3883 1.0191 0
M  V30 25 H -1.9234 0.5375 -0.4664 0
M  V30 26 H -2.6552 -1.0139 1.0293 0
M  V30 27 H -1.0793 -1.815 0.8754 0
M  V30 28 H -2.593 1.3131 2.3612 0
M  V30 29 H -1.9055 -0.8469 3.2986 0
M  V30 30 H -1.052 3.0562 3.2606 0
M  V30 31 H -1.3088 1.7654 4.4577 0
M  V30 32 H 0.4519 -0.0586 3.4341 0
M  V30 33 H 0.8893 2.1492 2.7135 0
M  V30 END ATOM
M  V30 BEGIN BOND
M  V30 1 1 1 2
M  V30 2 2 2 3
M  V30 3 1 2 4
M  V30 4 1 3 5
M  V30 5 1 4 6
M  V30 6 1 5 7
M  V30 7 1 5 8
M  V30 8 1 6 9
M  V30 9 1 8 10
M  V30 10 1 9 11
M  V30 11 1 9 12
M  V30 12 1 12 13
M  V30 13 1 12 14
M  V30 14 1 13 15
M  V30 15 1 14 16
M  V30 16 1 15 17
M  V30 17 1 16 18
M  V30 18 1 17 19
M  V30 19 2 6 8
M  V30 20 2 10 11
M  V30 21 1 15 16
M  V30 22 1 4 20
M  V30 23 1 5 21
M  V30 24 1 7 22
M  V30 25 1 7 23
M  V30 26 1 11 24
M  V30 27 1 12 25
M  V30 28 1 14 26
M  V30 29 1 14 27
M  V30 30 1 15 28
M  V30 31 1 16 29
M  V30 32 1 17 30
M  V30 33 1 17 31
M  V30 34 1 18 32
M  V30 35 1 19 33
M  V30 END BOND
M  V30 BEGIN COLLECTION
M  V30 MDLV30/STEABS ATOMS=(4 5 12 15 16)
M  V30 END COLLECTION
M  V30 END CTAB
M  END
>  <level_0>
6723

>  <index>
6723

>  <NO.>
6724

>  <Name>


>  <SMILES>
N[C@H]1N=C(Cl)Nc2c1ncn2[C@H]1C[C@@H](O)[C@@H](CO)O1

>  <logBB>


>  <Class>
1

>  <MW>
287.08

>  <nHBAcc>
7

>  <nHBDon>
4

>  <SLogP>
-0.5

>  <TopoPSA>
117.92

>  <MMFF94 Energy>
7.095

$$$$
N[C@H]1N[C@H](O)[C@H]2NCN(COC(CO)CO)[C@H]2N1
Actelion Java MolfileCreator 2.0

  0  0  0  0  0  0              0 V3000
M  V30 BEGIN CTAB
M  V30 COUNTS 39 40 0 0 0
M  V30 BEGIN ATOM
M  V30 1 O -1.0169 -0.1564 -1.6432 0
M  V30 2 C -1.2674 -0.5706 -3.0011 0
M  V30 3 C -0.5312 -1.2021 -0.8023 0
M  V30 4 C -1.9423 0.6226 -3.6872 0
M  V30 5 C 0.0314 -0.9501 -3.732 0
M  V30 6 N -0.761 -0.8633 0.5974 0
M  V30 7 O -1.0862 1.7634 -3.6595 0
M  V30 8 O 0.454 -2.2661 -3.3594 0
M  V30 9 C -0.0033 0.3093 1.0244 0 CFG=1
M  V30 10 C -0.2637 -1.9152 1.4819 0
M  V30 11 N -0.7476 0.8811 2.1385 0
M  V30 12 C 1.3775 -0.2545 1.3981 0 CFG=2
M  V30 13 N 1.163 -1.6902 1.714 0
M  V30 14 C 0.0511 1.8505 2.7992 0 CFG=2
M  V30 15 C 2.0428 0.5965 2.5069 0 CFG=2
M  V30 16 N 1.1252 1.1899 3.4519 0
M  V30 17 N -0.7489 2.2921 3.8869 0
M  V30 18 O 2.8225 1.6356 1.9233 0
M  V30 19 H -1.9658 -1.4161 -2.989 0
M  V30 20 H 0.5302 -1.365 -1.0174 0
M  V30 21 H -1.0803 -2.1237 -1.0306 0
M  V30 22 H -2.8659 0.8949 -3.1654 0
M  V30 23 H -2.1853 0.3976 -4.73 0
M  V30 24 H -0.0987 -0.9421 -4.819 0
M  V30 25 H 0.8431 -0.2646 -3.4682 0
M  V30 26 H -0.8521 1.8832 -2.7179 0
M  V30 27 H -0.0872 -2.8983 -3.8648 0
M  V30 28 H 0.0888 1.0666 0.235 0
M  V30 29 H -0.788 -1.8653 2.4446 0
M  V30 30 H -0.4496 -2.924 1.0939 0
M  V30 31 H -1.5778 1.3064 1.7464 0
M  V30 32 H 2.0146 -0.2175 0.503 0
M  V30 33 H 1.6797 -2.2484 1.0393 0
M  V30 34 H 0.3498 2.6926 2.1642 0
M  V30 35 H 2.7459 -0.0316 3.0667 0
M  V30 36 H 1.6258 1.8955 3.9814 0
M  V30 37 H -1.68 2.4819 3.5369 0
M  V30 38 H -0.8497 1.4535 4.4565 0
M  V30 39 H 3.6394 1.2156 1.6035 0
M  V30 END ATOM
M  V30 BEGIN BOND
M  V30 1 1 1 2
M  V30 2 1 1 3
M  V30 3 1 2 4
M  V30 4 1 2 5
M  V30 5 1 3 6
M  V30 6 1 4 7
M  V30 7 1 5 8
M  V30 8 1 6 9
M  V30 9 1 6 10
M  V30 10 1 9 11
M  V30 11 1 9 12
M  V30 12 1 10 13
M  V30 13 1 11 14
M  V30 14 1 12 15
M  V30 15 1 14 16
M  V30 16 1 14 17
M  V30 17 1 15 18
M  V30 18 1 12 13
M  V30 19 1 15 16
M  V30 20 1 2 19
M  V30 21 1 3 20
M  V30 22 1 3 21
M  V30 23 1 4 22
M  V30 24 1 4 23
M  V30 25 1 5 24
M  V30 26 1 5 25
M  V30 27 1 7 26
M  V30 28 1 8 27
M  V30 29 1 9 28
M  V30 30 1 10 29
M  V30 31 1 10 30
M  V30 32 1 11 31
M  V30 33 1 12 32
M  V30 34 1 13 33
M  V30 35 1 14 34
M  V30 36 1 15 35
M  V30 37 1 16 36
M  V30 38 1 17 37
M  V30 39 1 17 38
M  V30 40 1 18 39
M  V30 END BOND
M  V30 BEGIN COLLECTION
M  V30 MDLV30/STEABS ATOMS=(4 9 12 14 15)
M  V30 END COLLECTION
M  V30 END CTAB
M  END
>  <level_0>
6724

>  <index>
6724

>  <NO.>
6725

>  <Name>


>  <SMILES>
N[C@H]1N[C@H](O)[C@H]2NCN(COC(CO)CO)[C@H]2N1

>  <logBB>


>  <Class>
1

>  <MW>
263.16

>  <nHBAcc>
9

>  <nHBDon>
7

>  <SLogP>
-4.38

>  <TopoPSA>
135.27

>  <MMFF94 Energy>
-223.34

$$$$
Nc1ncc(/C(=N\O[C@H]2CCNC2=O)C(=O)N[C@@H]2C(=O)N3C(C(=O)O)=C(CN4C=CCC=C4)CS[C@@H]23)s1
Actelion Java MolfileCreator 2.0

  0  0  0  0  0  0              0 V3000
M  V30 BEGIN CTAB
M  V30 COUNTS 60 64 0 0 0
M  V30 BEGIN ATOM
M  V30 1 S -2.0486 1.8846 1.2288 0
M  V30 2 C -0.7314 0.7397 0.7617 0 CFG=2
M  V30 3 C -3.0818 0.577 1.9723 0
M  V30 4 N -0.2255 0.1555 1.9815 0
M  V30 5 C 0.689 1.3643 0.5728 0 CFG=1
M  V30 6 C -2.3341 -0.3731 2.8955 0
M  V30 7 C -0.9866 -0.5101 2.8857 0
M  V30 8 C 1.0715 0.4602 1.7996 0
M  V30 9 N 1.4284 1.0291 -0.6733 0
M  V30 10 C -3.2463 -1.184 3.8023 0
M  V30 11 C -0.2769 -1.3808 3.8605 0
M  V30 12 O 2.0844 0.1694 2.3899 0
M  V30 13 C 0.8546 1.0878 -1.9247 0
M  V30 14 N -4.0161 -0.3082 4.7009 0
M  V30 15 O -0.3822 -1.3617 5.072 0
M  V30 16 O 0.4973 -2.2786 3.224 0
M  V30 17 O -0.3169 1.3502 -2.1445 0
M  V30 18 C 1.8191 0.7426 -3.0635 0
M  V30 19 C -3.3938 0.3587 5.7548 0
M  V30 20 C -5.394 -0.1589 4.553 0
M  V30 21 N 2.5093 -0.3515 -2.8893 0
M  V30 22 C 1.8647 1.6551 -4.1826 0
M  V30 23 C -4.0446 1.1607 6.6111 0
M  V30 24 C -6.1442 0.6178 5.3493 0
M  V30 25 O 3.429 -0.5808 -3.9245 0
M  V30 26 S 1.6327 3.345 -3.9721 0
M  V30 27 C 2.0946 1.4071 -5.5215 0
M  V30 28 C -5.5273 1.3892 6.4871 0
M  V30 29 C 4.1371 -1.7786 -3.6672 0 CFG=2
M  V30 30 C 1.832 3.5891 -5.657 0
M  V30 31 N 2.0644 2.5082 -6.3563 0
M  V30 32 C 5.331 -1.9633 -4.5992 0
M  V30 33 C 3.2967 -3.0149 -3.9932 0
M  V30 34 N 1.7523 4.8071 -6.1994 0
M  V30 35 O 6.1272 -1.1169 -4.9668 0
M  V30 36 N 5.3817 -3.2987 -4.9597 0
M  V30 37 C 4.3283 -4.0612 -4.3636 0
M  V30 38 H -1.0136 -0.0198 0.0233 0
M  V30 39 H -3.558 0.0036 1.1696 0
M  V30 40 H -3.8697 1.1092 2.5107 0
M  V30 41 H 0.7808 2.4334 0.7988 0
M  V30 42 H 2.3955 0.7161 -0.6211 0
M  V30 43 H -2.7134 -1.9293 4.4008 0
M  V30 44 H -3.9209 -1.7701 3.1634 0
M  V30 45 H 0.9772 -2.7319 3.9478 0
M  V30 46 H -2.3251 0.1867 5.8504 0
M  V30 47 H -5.8402 -0.7167 3.7352 0
M  V30 48 H -3.5099 1.6558 7.4137 0
M  V30 49 H -7.2132 0.7031 5.1904 0
M  V30 50 H 2.2796 0.433 -5.958 0
M  V30 51 H -6.013 1.0918 7.4231 0
M  V30 52 H -5.7144 2.4584 6.3382 0
M  V30 53 H 4.5151 -1.8012 -2.6369 0
M  V30 54 H 2.6333 -2.809 -4.8433 0
M  V30 55 H 2.6636 -3.3265 -3.1568 0
M  V30 56 H 1.8789 4.9165 -7.1972 0
M  V30 57 H 1.5678 5.6354 -5.6516 0
M  V30 58 H 6.1224 -3.6532 -5.5535 0
M  V30 59 H 4.7307 -4.5706 -3.4825 0
M  V30 60 H 3.9487 -4.7984 -5.0753 0
M  V30 END ATOM
M  V30 BEGIN BOND
M  V30 1 1 1 2
M  V30 2 1 1 3
M  V30 3 1 2 4
M  V30 4 1 2 5
M  V30 5 1 3 6
M  V30 6 1 4 7
M  V30 7 1 4 8
M  V30 8 1 5 9
M  V30 9 1 6 10
M  V30 10 1 7 11
M  V30 11 2 8 12
M  V30 12 1 9 13
M  V30 13 1 10 14
M  V30 14 2 11 15
M  V30 15 1 11 16
M  V30 16 2 13 17
M  V30 17 1 13 18
M  V30 18 1 14 19
M  V30 19 1 14 20
M  V30 20 2 18 21
M  V30 21 1 18 22
M  V30 22 2 19 23
M  V30 23 2 20 24
M  V30 24 1 21 25
M  V30 25 1 22 26
M  V30 26 2 22 27
M  V30 27 1 23 28
M  V30 28 1 25 29
M  V30 29 1 26 30
M  V30 30 1 27 31
M  V30 31 1 29 32
M  V30 32 1 29 33
M  V30 33 1 30 34
M  V30 34 2 32 35
M  V30 35 1 32 36
M  V30 36 1 33 37
M  V30 37 1 5 8
M  V30 38 2 6 7
M  V30 39 1 24 28
M  V30 40 2 30 31
M  V30 41 1 36 37
M  V30 42 1 2 38
M  V30 43 1 3 39
M  V30 44 1 3 40
M  V30 45 1 5 41
M  V30 46 1 9 42
M  V30 47 1 10 43
M  V30 48 1 10 44
M  V30 49 1 16 45
M  V30 50 1 19 46
M  V30 51 1 20 47
M  V30 52 1 23 48
M  V30 53 1 24 49
M  V30 54 1 27 50
M  V30 55 1 28 51
M  V30 56 1 28 52
M  V30 57 1 29 53
M  V30 58 1 33 54
M  V30 59 1 33 55
M  V30 60 1 34 56
M  V30 61 1 34 57
M  V30 62 1 36 58
M  V30 63 1 37 59
M  V30 64 1 37 60
M  V30 END BOND
M  V30 BEGIN COLLECTION
M  V30 MDLV30/STEABS ATOMS=(3 2 5 29)
M  V30 END COLLECTION
M  V30 END CTAB
M  END
>  <level_0>
6728

>  <index>
6728

>  <NO.>
6729

>  <Name>


>  <SMILES>
Nc1ncc(/C(=N\O[C@H]2CCNC2=O)C(=O)N[C@@H]2C(=O)N3C(C(=O)O)=C(CN4C=CCC=C4)CS[C@@H]23)s1

>  <logBB>


>  <Class>
-1

>  <MW>
545.12

>  <nHBAcc>
11

>  <nHBDon>
4

>  <SLogP>
-0.19

>  <TopoPSA>
179.55

>  <MMFF94 Energy>
15.498

$$$$
O=C(O)C1=C(CN2C=CC(CCS(=O)(=O)O)C=C2)CS[C@H]2[C@H](NC(=O)[C@H](NC(=O)c3nc[nH]c3C(=O)O)c3ccccc3)C(=O)N12
Actelion Java MolfileCreator 2.0

  0  0  0  0  0  0              0 V3000
M  V30 BEGIN CTAB
M  V30 COUNTS 74 78 0 0 0
M  V30 BEGIN ATOM
M  V30 1 S 0.2447 -6.7048 1.5505 0
M  V30 2 O 1.1155 -7.7286 2.0825 0
M  V30 3 O -1.1497 -6.6133 1.9131 0
M  V30 4 O 0.9566 -5.3021 1.9115 0
M  V30 5 C 0.4224 -6.6496 -0.2281 0
M  V30 6 C -0.2947 -5.4543 -0.8472 0
M  V30 7 C -0.2928 -5.4767 -2.3863 0
M  V30 8 C -1.1729 -4.35 -2.8941 0
M  V30 9 C 1.1114 -5.3936 -2.9555 0
M  V30 10 C -0.6805 -3.3738 -3.6705 0
M  V30 11 C 1.4903 -4.3673 -3.7326 0
M  V30 12 N 0.6475 -3.3179 -4.0846 0
M  V30 13 C 1.1329 -2.1901 -4.9036 0
M  V30 14 C 1.2894 -0.9666 -4.0178 0
M  V30 15 C 0.5974 0.1827 -4.198 0
M  V30 16 C 2.318 -1.1532 -2.9146 0
M  V30 17 N 0.7304 1.2189 -3.3322 0
M  V30 18 C -0.2984 0.3726 -5.3677 0
M  V30 19 S 2.9791 0.4122 -2.2494 0
M  V30 20 C 0.4433 2.5323 -3.2985 0
M  V30 21 C 1.3258 1.1177 -2.0193 0 CFG=1
M  V30 22 O -0.0102 0.1837 -6.5353 0
M  V30 23 O -1.5309 0.7444 -4.9804 0
M  V30 24 O -0.1485 3.273 -4.047 0
M  V30 25 C 1.2357 2.676 -1.9503 0 CFG=2
M  V30 26 N 0.4275 3.2519 -0.8372 0
M  V30 27 C 0.6782 2.945 0.4854 0
M  V30 28 O 1.5644 2.1562 0.8121 0
M  V30 29 C -0.278 3.6162 1.4993 0 CFG=2
M  V30 30 N 0.3416 3.6445 2.8035 0
M  V30 31 C -1.6169 2.9005 1.5546 0
M  V30 32 C 0.1153 4.6453 3.7137 0
M  V30 33 C -1.6965 1.5059 1.7065 0
M  V30 34 C -2.8087 3.6391 1.4846 0
M  V30 35 O -0.5789 5.6266 3.4691 0
M  V30 36 C 0.8464 4.4304 4.9661 0
M  V30 37 C -2.9361 0.8659 1.7528 0
M  V30 38 C -4.0468 2.9962 1.5324 0
M  V30 39 N 1.8525 3.4673 5.0568 0
M  V30 40 C 0.7218 5.0975 6.1758 0
M  V30 41 C -4.11 1.6105 1.6611 0
M  V30 42 C 2.3629 3.599 6.2569 0
M  V30 43 N 1.7391 4.5892 6.9534 0
M  V30 44 C -0.172 6.0997 6.6588 0
M  V30 45 O 0.0366 6.859 7.5927 0
M  V30 46 O -1.3612 6.0695 6.0397 0
M  V30 47 H 1.6715 -5.4829 2.5595 0
M  V30 48 H 0.009 -7.5908 -0.6052 0
M  V30 49 H 1.4969 -6.6351 -0.4339 0
M  V30 50 H 0.1617 -4.5235 -0.4842 0
M  V30 51 H -1.3334 -5.4398 -0.4911 0
M  V30 52 H -0.7365 -6.4193 -2.732 0
M  V30 53 H -2.2215 -4.3442 -2.6136 0
M  V30 54 H 1.8138 -6.1929 -2.7466 0
M  V30 55 H -1.3129 -2.5642 -4.0256 0
M  V30 56 H 2.4957 -4.3141 -4.1412 0
M  V30 57 H 2.0997 -2.4243 -5.3677 0
M  V30 58 H 0.4355 -2.048 -5.7334 0
M  V30 59 H 3.1819 -1.7063 -3.2976 0
M  V30 60 H 1.886 -1.7292 -2.0893 0
M  V30 61 H 0.6863 0.5825 -1.307 0
M  V30 62 H -2.0065 0.9232 -5.8174 0
M  V30 63 H 2.1775 3.2234 -2.0727 0
M  V30 64 H -0.3476 3.8722 -1.0556 0
M  V30 65 H -0.4245 4.651 1.1628 0
M  V30 66 H 0.9959 2.9104 3.0661 0
M  V30 67 H -0.7924 0.906 1.7987 0
M  V30 68 H -2.7808 4.7252 1.4101 0
M  V30 69 H -2.9855 -0.2137 1.8702 0
M  V30 70 H -4.9631 3.5791 1.4803 0
M  V30 71 H -5.0748 1.1117 1.7038 0
M  V30 72 H 3.1772 3.0178 6.6698 0
M  V30 73 H 1.9492 4.8821 7.899 0
M  V30 74 H -1.8718 6.8027 6.435 0
M  V30 END ATOM
M  V30 BEGIN BOND
M  V30 1 2 1 2
M  V30 2 2 1 3
M  V30 3 1 1 4
M  V30 4 1 1 5
M  V30 5 1 5 6
M  V30 6 1 6 7
M  V30 7 1 7 8
M  V30 8 1 7 9
M  V30 9 2 8 10
M  V30 10 2 9 11
M  V30 11 1 10 12
M  V30 12 1 12 13
M  V30 13 1 13 14
M  V30 14 2 14 15
M  V30 15 1 14 16
M  V30 16 1 15 17
M  V30 17 1 15 18
M  V30 18 1 16 19
M  V30 19 1 17 20
M  V30 20 1 17 21
M  V30 21 2 18 22
M  V30 22 1 18 23
M  V30 23 2 20 24
M  V30 24 1 20 25
M  V30 25 1 25 26
M  V30 26 1 26 27
M  V30 27 2 27 28
M  V30 28 1 27 29
M  V30 29 1 29 30
M  V30 30 1 29 31
M  V30 31 1 30 32
M  V30 32 2 31 33
M  V30 33 1 31 34
M  V30 34 2 32 35
M  V30 35 1 32 36
M  V30 36 1 33 37
M  V30 37 2 34 38
M  V30 38 1 36 39
M  V30 39 2 36 40
M  V30 40 2 37 41
M  V30 41 2 39 42
M  V30 42 1 40 43
M  V30 43 1 40 44
M  V30 44 2 44 45
M  V30 45 1 44 46
M  V30 46 1 11 12
M  V30 47 1 19 21
M  V30 48 1 21 25
M  V30 49 1 38 41
M  V30 50 1 42 43
M  V30 51 1 4 47
M  V30 52 1 5 48
M  V30 53 1 5 49
M  V30 54 1 6 50
M  V30 55 1 6 51
M  V30 56 1 7 52
M  V30 57 1 8 53
M  V30 58 1 9 54
M  V30 59 1 10 55
M  V30 60 1 11 56
M  V30 61 1 13 57
M  V30 62 1 13 58
M  V30 63 1 16 59
M  V30 64 1 16 60
M  V30 65 1 21 61
M  V30 66 1 23 62
M  V30 67 1 25 63
M  V30 68 1 26 64
M  V30 69 1 29 65
M  V30 70 1 30 66
M  V30 71 1 33 67
M  V30 72 1 34 68
M  V30 73 1 37 69
M  V30 74 1 38 70
M  V30 75 1 41 71
M  V30 76 1 42 72
M  V30 77 1 43 73
M  V30 78 1 46 74
M  V30 END BOND
M  V30 BEGIN COLLECTION
M  V30 MDLV30/STEABS ATOMS=(3 21 25 29)
M  V30 END COLLECTION
M  V30 END CTAB
M  END
>  <level_0>
6736

>  <index>
6736

>  <NO.>
6737

>  <Name>


>  <SMILES>
O=C(O)C1=C(CN2C=CC(CCS(=O)(=O)O)C=C2)CS[C@H]2[C@H](NC(=O)[C@H](NC(=O)c3nc[nH]c3C(=O)O)c3ccccc3)C(=O)N12

>  <logBB>


>  <Class>
-1

>  <MW>
672.13

>  <nHBAcc>
10

>  <nHBDon>
6

>  <SLogP>
0.55

>  <TopoPSA>
239.4

>  <MMFF94 Energy>
-64.216

$$$$
OC(CN1CN=CN1)(CN1CN=CN1)c1ccc(F)cc1F
Actelion Java MolfileCreator 2.0

  0  0  0  0  0  0              0 V3000
M  V30 BEGIN CTAB
M  V30 COUNTS 38 40 0 0 0
M  V30 BEGIN ATOM
M  V30 1 F 2.4121 -0.5624 -1.0447 0
M  V30 2 C 2.4346 0.2441 0.0264 0
M  V30 3 C 1.2307 0.7061 0.5839 0
M  V30 4 C 3.6739 0.606 0.5439 0
M  V30 5 C 1.3175 1.5624 1.6981 0
M  V30 6 C -0.1205 0.2859 -0.0037 0
M  V30 7 C 3.7234 1.4479 1.6431 0
M  V30 8 C 2.5584 1.9306 2.225 0
M  V30 9 O -1.1759 0.8704 0.7902 0
M  V30 10 C -0.3072 -1.2757 -0.0178 0
M  V30 11 C -0.2519 0.8522 -1.4611 0
M  V30 12 F 4.911 1.8038 2.1491 0
M  V30 13 N 0.0236 -1.9516 1.255 0
M  V30 14 N -1.6052 0.665 -2.0437 0
M  V30 15 N -0.0301 -3.335 1.0851 0
M  V30 16 C -0.9918 -1.7286 2.3088 0
M  V30 17 N -1.4987 0.7136 -3.4374 0
M  V30 18 C -2.4731 1.848 -1.7775 0
M  V30 19 C -0.7968 -3.8533 2.0716 0
M  V30 20 N -1.4225 -3.0427 2.8656 0
M  V30 21 C -2.1994 1.7708 -3.9029 0
M  V30 22 N -2.8041 2.536 -3.0518 0
M  V30 23 H 4.5876 0.2354 0.0954 0
M  V30 24 H 0.4162 1.9475 2.1724 0
M  V30 25 H 2.619 2.5881 3.0871 0
M  V30 26 H -2.0112 0.5279 0.4251 0
M  V30 27 H -1.3364 -1.5252 -0.3118 0
M  V30 28 H 0.3443 -1.694 -0.7961 0
M  V30 29 H 0.0355 1.9132 -1.4879 0
M  V30 30 H 0.4797 0.3322 -2.0942 0
M  V30 31 H 0.667 -3.8628 0.5713 0
M  V30 32 H -0.5591 -1.1227 3.1119 0
M  V30 33 H -1.8946 -1.2281 1.9427 0
M  V30 34 H -1.0856 -0.013 -4.0115 0
M  V30 35 H -3.4071 1.4989 -1.322 0
M  V30 36 H -2.023 2.5747 -1.0911 0
M  V30 37 H -0.8354 -4.951 2.1387 0
M  V30 38 H -2.2044 1.9168 -4.9937 0
M  V30 END ATOM
M  V30 BEGIN BOND
M  V30 1 1 1 2
M  V30 2 2 2 3
M  V30 3 1 2 4
M  V30 4 1 3 5
M  V30 5 1 3 6
M  V30 6 2 4 7
M  V30 7 2 5 8
M  V30 8 1 6 9
M  V30 9 1 6 10
M  V30 10 1 6 11
M  V30 11 1 7 12
M  V30 12 1 10 13
M  V30 13 1 11 14
M  V30 14 1 13 15
M  V30 15 1 13 16
M  V30 16 1 14 17
M  V30 17 1 14 18
M  V30 18 1 15 19
M  V30 19 1 16 20
M  V30 20 1 17 21
M  V30 21 1 18 22
M  V30 22 1 7 8
M  V30 23 2 19 20
M  V30 24 2 21 22
M  V30 25 1 4 23
M  V30 26 1 5 24
M  V30 27 1 8 25
M  V30 28 1 9 26
M  V30 29 1 10 27
M  V30 30 1 10 28
M  V30 31 1 11 29
M  V30 32 1 11 30
M  V30 33 1 15 31
M  V30 34 1 16 32
M  V30 35 1 16 33
M  V30 36 1 17 34
M  V30 37 1 18 35
M  V30 38 1 18 36
M  V30 39 1 19 37
M  V30 40 1 21 38
M  V30 END BOND
M  V30 END CTAB
M  END
>  <level_0>
6764

>  <index>
6764

>  <NO.>
6765

>  <Name>
2-(2,4-difluorophenyl)-1,3-bis(1,3-dihydro-1,2,4-triazol-2-yl)propan-2-ol

>  <SMILES>
OC(CN1CN=CN1)(CN1CN=CN1)c1ccc(F)cc1F

>  <logBB>


>  <Class>
1

>  <MW>
310.14

>  <nHBAcc>
7

>  <nHBDon>
3

>  <SLogP>
-0.24

>  <TopoPSA>
75.49

>  <MMFF94 Energy>
98.482

$$$$
CCSCc1ccc2c(c1)c1c3c(c4c5cc(CSCC)ccc5n5c4c1n2C1C[C@](O)(C(=O)OC)C5(C)O1)CNC3=O
Actelion Java MolfileCreator 2.0

  0  0  0  0  0  0              0 V3000
M  V30 BEGIN CTAB
M  V30 COUNTS 76 83 0 0 0
M  V30 BEGIN ATOM
M  V30 1 S 2.2165 2.2987 6.4133 0
M  V30 2 C 3.1201 2.7185 4.8928 0
M  V30 3 C 3.5169 2.6982 7.6181 0
M  V30 4 C 2.2806 2.4774 3.6638 0
M  V30 5 C 3.02 2.4334 9.0279 0
M  V30 6 C 2.2802 1.2193 3.0421 0
M  V30 7 C 1.4625 3.4854 3.1527 0
M  V30 8 C 1.49 0.9827 1.8948 0
M  V30 9 C 0.6737 3.2818 2.0142 0
M  V30 10 C 1.2422 -0.1773 1.111 0
M  V30 11 C 0.7125 2.0327 1.3692 0
M  V30 12 C 0.3483 0.2064 0.136 0
M  V30 13 C 1.6254 -1.5318 1.111 0
M  V30 14 N 0.0889 1.5526 0.2159 0
M  V30 15 C -0.2214 -0.8456 -0.8548 0
M  V30 16 C 1.0979 -2.4749 0.1679 0
M  V30 17 C 2.5665 -2.2447 2.0378 0
M  V30 18 C -0.7059 2.3279 -0.7721 0
M  V30 19 N -1.1544 -0.6413 -1.8199 0
M  V30 20 C 0.1596 -2.17 -0.8285 0
M  V30 21 C 1.6937 -3.7801 0.4812 0
M  V30 22 N 2.5343 -3.598 1.5572 0
M  V30 23 O -0.6881 1.6171 -2.0425 0
M  V30 24 C -2.2114 2.3858 -0.4254 0 CFG=1
M  V30 25 C -0.0351 3.6707 -1.1074 0
M  V30 26 C -1.4061 -1.8274 -2.4714 0
M  V30 27 C -1.7658 0.6584 -2.0353 0
M  V30 28 C -0.5826 -2.8035 -1.876 0
M  V30 29 O 1.4995 -4.8404 -0.077 0
M  V30 30 O -2.5187 2.5284 0.9616 0
M  V30 31 C -2.8972 3.4986 -1.238 0
M  V30 32 C -2.7301 1.0377 -0.9115 0
M  V30 33 C -2.2821 -2.1321 -3.5238 0
M  V30 34 C -0.6485 -4.122 -2.3777 0
M  V30 35 O -3.2974 3.3912 -2.389 0
M  V30 36 O -2.9703 4.6414 -0.4887 0
M  V30 37 C -2.3223 -3.4489 -3.9917 0
M  V30 38 C -1.5135 -4.4466 -3.4392 0
M  V30 39 C -3.6026 5.7347 -1.1591 0
M  V30 40 C -1.5722 -5.8591 -3.9654 0
M  V30 41 S -0.0781 -6.3873 -4.8645 0
M  V30 42 C -0.0328 -5.1745 -6.2228 0
M  V30 43 C -1.1636 -5.3719 -7.2162 0
M  V30 44 H 4.0355 2.1186 4.8369 0
M  V30 45 H 3.4255 3.7702 4.931 0
M  V30 46 H 4.3988 2.083 7.4152 0
M  V30 47 H 3.7932 3.7521 7.5153 0
M  V30 48 H 3.806 2.6753 9.751 0
M  V30 49 H 2.7531 1.3806 9.1695 0
M  V30 50 H 2.1475 3.05 9.2697 0
M  V30 51 H 2.8765 0.412 3.458 0
M  V30 52 H 1.422 4.4535 3.6498 0
M  V30 53 H 0.0393 4.0905 1.6749 0
M  V30 54 H 3.5871 -1.8619 1.9597 0
M  V30 55 H 2.2151 -2.2264 3.0726 0
M  V30 56 H 3.0507 -4.3749 1.9462 0
M  V30 57 H -0.3849 4.0599 -2.0714 0
M  V30 58 H 1.0497 3.5517 -1.2148 0
M  V30 59 H -0.2234 4.4424 -0.3595 0
M  V30 60 H -2.239 0.6725 -3.0207 0
M  V30 61 H -2.3752 3.4616 1.2071 0
M  V30 62 H -3.7607 1.0819 -1.2833 0
M  V30 63 H -2.7471 0.2983 -0.1006 0
M  V30 64 H -2.9164 -1.3767 -3.9765 0
M  V30 65 H -0.0202 -4.8957 -1.9417 0
M  V30 66 H -3.0006 -3.6882 -4.8085 0
M  V30 67 H -3.6245 6.5852 -0.4723 0
M  V30 68 H -3.0299 6.02 -2.0469 0
M  V30 69 H -4.6323 5.4771 -1.4257 0
M  V30 70 H -1.7095 -6.5408 -3.1177 0
M  V30 71 H -2.4477 -6.0058 -4.6066 0
M  V30 72 H -0.0296 -4.1552 -5.8267 0
M  V30 73 H 0.9213 -5.3122 -6.7421 0
M  V30 74 H -1.0482 -4.6724 -8.051 0
M  V30 75 H -2.1434 -5.1835 -6.7686 0
M  V30 76 H -1.1596 -6.3849 -7.6321 0
M  V30 END ATOM
M  V30 BEGIN BOND
M  V30 1 1 1 2
M  V30 2 1 1 3
M  V30 3 1 2 4
M  V30 4 1 3 5
M  V30 5 2 4 6
M  V30 6 1 4 7
M  V30 7 1 6 8
M  V30 8 2 7 9
M  V30 9 1 8 10
M  V30 10 2 8 11
M  V30 11 2 10 12
M  V30 12 1 10 13
M  V30 13 1 11 14
M  V30 14 1 12 15
M  V30 15 2 13 16
M  V30 16 1 13 17
M  V30 17 1 14 18
M  V30 18 1 15 19
M  V30 19 2 15 20
M  V30 20 1 16 21
M  V30 21 1 17 22
M  V30 22 1 18 23
M  V30 23 1 18 24
M  V30 24 1 18 25
M  V30 25 1 19 26
M  V30 26 1 19 27
M  V30 27 1 20 28
M  V30 28 2 21 29
M  V30 29 1 24 30
M  V30 30 1 24 31
M  V30 31 1 24 32
M  V30 32 1 26 33
M  V30 33 1 28 34
M  V30 34 2 31 35
M  V30 35 1 31 36
M  V30 36 2 33 37
M  V30 37 2 34 38
M  V30 38 1 36 39
M  V30 39 1 38 40
M  V30 40 1 40 41
M  V30 41 1 41 42
M  V30 42 1 42 43
M  V30 43 1 9 11
M  V30 44 1 12 14
M  V30 45 1 16 20
M  V30 46 1 21 22
M  V30 47 1 23 27
M  V30 48 2 26 28
M  V30 49 1 27 32
M  V30 50 1 37 38
M  V30 51 1 2 44
M  V30 52 1 2 45
M  V30 53 1 3 46
M  V30 54 1 3 47
M  V30 55 1 5 48
M  V30 56 1 5 49
M  V30 57 1 5 50
M  V30 58 1 6 51
M  V30 59 1 7 52
M  V30 60 1 9 53
M  V30 61 1 17 54
M  V30 62 1 17 55
M  V30 63 1 22 56
M  V30 64 1 25 57
M  V30 65 1 25 58
M  V30 66 1 25 59
M  V30 67 1 27 60
M  V30 68 1 30 61
M  V30 69 1 32 62
M  V30 70 1 32 63
M  V30 71 1 33 64
M  V30 72 1 34 65
M  V30 73 1 37 66
M  V30 74 1 39 67
M  V30 75 1 39 68
M  V30 76 1 39 69
M  V30 77 1 40 70
M  V30 78 1 40 71
M  V30 79 1 42 72
M  V30 80 1 42 73
M  V30 81 1 43 74
M  V30 82 1 43 75
M  V30 83 1 43 76
M  V30 END BOND
M  V30 BEGIN COLLECTION
M  V30 MDLV30/STEABS ATOMS=(1 24)
M  V30 END COLLECTION
M  V30 END CTAB
M  END
>  <level_0>
6803

>  <index>
6803

>  <NO.>
6804

>  <Name>
cep-1347

>  <SMILES>
CCSCc1ccc2c(c1)c1c3c(c4c5cc(CSCC)ccc5n5c4c1n2C1C[C@](O)(C(=O)OC)C5(C)O1)CNC3=O

>  <logBB>


>  <Class>
1

>  <MW>
615.19

>  <nHBAcc>
7

>  <nHBDon>
2

>  <SLogP>
6.16

>  <TopoPSA>
94.72

>  <MMFF94 Energy>
104.12

$$$$
CNC(=O)c1cc(Oc2ccc(NC(=O)Nc3ccc(Cl)c(C(F)(F)F)c3)cc2)ccn1
Actelion Java MolfileCreator 2.0

  0  0  0  0  0  0              0 V3000
M  V30 BEGIN CTAB
M  V30 COUNTS 48 50 0 0 0
M  V30 BEGIN ATOM
M  V30 1 Cl 8.5934 -4.8573 0.6466 0
M  V30 2 C 7.0343 -4.2725 0.1948 0
M  V30 3 C 6.347 -4.769 -0.917 0
M  V30 4 C 6.4679 -3.2666 0.981 0
M  V30 5 C 5.0762 -4.2349 -1.2185 0
M  V30 6 C 6.9327 -5.8481 -1.7857 0
M  V30 7 C 5.2083 -2.7477 0.6692 0
M  V30 8 C 4.4985 -3.2355 -0.4262 0
M  V30 9 F 6.1121 -6.1957 -2.8213 0
M  V30 10 F 8.1074 -5.4856 -2.3691 0
M  V30 11 F 7.1721 -7.007 -1.1147 0
M  V30 12 N 3.2362 -2.743 -0.8097 0
M  V30 13 C 2.3301 -2.0795 0.0051 0
M  V30 14 O 2.4662 -1.914 1.2105 0
M  V30 15 N 1.2498 -1.63 -0.7392 0
M  V30 16 C 0.0845 -1.0242 -0.23 0
M  V30 17 C -0.3762 -1.237 1.0719 0
M  V30 18 C -0.6634 -0.219 -1.0979 0
M  V30 19 C -1.5557 -0.6297 1.5122 0
M  V30 20 C -1.8413 0.3921 -0.6593 0
M  V30 21 C -2.2717 0.2007 0.6538 0
M  V30 22 O -3.4384 0.753 1.1281 0
M  V30 23 C -3.5741 2.1177 1.0074 0
M  V30 24 C -4.8076 2.5929 0.5823 0
M  V30 25 C -2.5626 3.0103 1.3571 0
M  V30 26 C -4.9659 3.9658 0.4869 0
M  V30 27 C -2.8178 4.3648 1.2311 0
M  V30 28 N -3.9921 4.8708 0.7984 0
M  V30 29 C -6.2711 4.5332 0.0162 0
M  V30 30 O -7.2098 3.811 -0.2982 0
M  V30 31 N -6.3082 5.9102 -0.0243 0
M  V30 32 C -7.4777 6.6391 -0.4293 0
M  V30 33 H 7.0016 -2.8747 1.8444 0
M  V30 34 H 4.5337 -4.6197 -2.0812 0
M  V30 35 H 4.8081 -1.9558 1.2975 0
M  V30 36 H 2.8939 -3.0252 -1.7155 0
M  V30 37 H 1.3727 -1.5959 -1.7392 0
M  V30 38 H 0.1594 -1.8839 1.7616 0
M  V30 39 H -0.3409 -0.0521 -2.1219 0
M  V30 40 H -1.9088 -0.8052 2.5248 0
M  V30 41 H -2.4179 1.0056 -1.3458 0
M  V30 42 H -5.6158 1.9157 0.3294 0
M  V30 43 H -1.6028 2.6671 1.7269 0
M  V30 44 H -2.0601 5.1002 1.4884 0
M  V30 45 H -5.4689 6.3956 0.2825 0
M  V30 46 H -8.1968 6.6332 0.3938 0
M  V30 47 H -7.9275 6.1698 -1.3082 0
M  V30 48 H -7.1875 7.6663 -0.6608 0
M  V30 END ATOM
M  V30 BEGIN BOND
M  V30 1 1 1 2
M  V30 2 2 2 3
M  V30 3 1 2 4
M  V30 4 1 3 5
M  V30 5 1 3 6
M  V30 6 2 4 7
M  V30 7 2 5 8
M  V30 8 1 6 9
M  V30 9 1 6 10
M  V30 10 1 6 11
M  V30 11 1 8 12
M  V30 12 1 12 13
M  V30 13 2 13 14
M  V30 14 1 13 15
M  V30 15 1 15 16
M  V30 16 2 16 17
M  V30 17 1 16 18
M  V30 18 1 17 19
M  V30 19 2 18 20
M  V30 20 2 19 21
M  V30 21 1 21 22
M  V30 22 1 22 23
M  V30 23 2 23 24
M  V30 24 1 23 25
M  V30 25 1 24 26
M  V30 26 2 25 27
M  V30 27 2 26 28
M  V30 28 1 26 29
M  V30 29 2 29 30
M  V30 30 1 29 31
M  V30 31 1 31 32
M  V30 32 1 7 8
M  V30 33 1 20 21
M  V30 34 1 27 28
M  V30 35 1 4 33
M  V30 36 1 5 34
M  V30 37 1 7 35
M  V30 38 1 12 36
M  V30 39 1 15 37
M  V30 40 1 17 38
M  V30 41 1 18 39
M  V30 42 1 19 40
M  V30 43 1 20 41
M  V30 44 1 24 42
M  V30 45 1 25 43
M  V30 46 1 27 44
M  V30 47 1 31 45
M  V30 48 1 32 46
M  V30 49 1 32 47
M  V30 50 1 32 48
M  V30 END BOND
M  V30 END CTAB
M  END
>  <level_0>
6809

>  <index>
6809

>  <NO.>
6810

>  <Name>
sorafenib

>  <SMILES>
CNC(=O)c1cc(Oc2ccc(NC(=O)Nc3ccc(Cl)c(C(F)(F)F)c3)cc2)ccn1

>  <logBB>


>  <Class>
1

>  <MW>
464.09

>  <nHBAcc>
4

>  <nHBDon>
3

>  <SLogP>
5.55

>  <TopoPSA>
92.35

>  <MMFF94 Energy>
-4.8823

$$$$
COC1C(=O)C(C)CC(C)/C=C/C=C/C=C(\C)[C@@H](OC)CC2CC[C@@H](C)[C@@](O)(O2)C(=O)C(=O)N2CCCCC2C(=O)OC(C(C)CC2CC[C@@H](OCCO)C(OC)C2)CC(=O)[C@H](C)C=C(C)[C@@H]1O
Actelion Java MolfileCreator 2.0

  0  0  0  0  0  0              0 V3000
M  V30 BEGIN CTAB
M  V30 COUNTS 151 154 0 0 0
M  V30 BEGIN ATOM
M  V30 1 O 4.6797 -3.5677 0.4751 0
M  V30 2 C 3.5834 -4.0378 0.1849 0
M  V30 3 N 2.6497 -3.3955 -0.6307 0
M  V30 4 C 3.2364 -5.397 0.7588 0
M  V30 5 C 2.8846 -1.9652 -0.9099 0
M  V30 6 C 1.3217 -3.9477 -0.9064 0
M  V30 7 O 3.4892 -6.41 0.1059 0
M  V30 8 C 2.5492 -5.4255 2.1399 0 CFG=1
M  V30 9 C 2.3777 -1.1169 0.2726 0
M  V30 10 C 2.2783 -1.5241 -2.2476 0
M  V30 11 C 0.7939 -3.5277 -2.2713 0
M  V30 12 O 1.1828 -5.1047 1.9033 0
M  V30 13 O 2.633 -6.7725 2.6213 0
M  V30 14 C 3.1629 -4.4397 3.1642 0 CFG=1
M  V30 15 O 1.837 -1.5641 1.277 0
M  V30 16 O 2.6144 0.2076 0.0556 0
M  V30 17 C 0.845 -2.014 -2.4303 0
M  V30 18 C 0.3032 -5.2002 3.0237 0
M  V30 19 C 2.1528 -4.0249 4.2519 0
M  V30 20 C 4.4493 -4.9856 3.792 0
M  V30 21 C 2.2685 1.1144 1.1355 0
M  V30 22 C -0.5092 -6.5096 3.0063 0
M  V30 23 C 1.0135 -5.0212 4.374 0
M  V30 24 C 2.9245 2.4888 0.8242 0
M  V30 25 C 0.738 1.2403 1.2577 0
M  V30 26 C -1.3761 -6.7513 1.7505 0 CFG=2
M  V30 27 C 2.5032 3.0474 -0.56 0
M  V30 28 C 4.4534 2.3595 0.8963 0
M  V30 29 C 0.2248 0.6113 2.5415 0
M  V30 30 O -0.5526 -6.93 0.5894 0
M  V30 31 C -2.4115 -5.6462 1.4986 0
M  V30 32 C 2.0603 4.5277 -0.5292 0
M  V30 33 O 0.8345 0.7794 3.6047 0
M  V30 34 C -1.1333 -0.1049 2.5458 0 CFG=1
M  V30 35 C -0.0952 -8.2635 0.4163 0
M  V30 36 C -2.4383 -4.944 0.3462 0
M  V30 37 C -3.3974 -5.4517 2.6247 0
M  V30 38 C 1.5101 4.933 -1.9103 0
M  V30 39 C 3.193 5.479 -0.1167 0
M  V30 40 C -2.2352 0.8314 2.9888 0
M  V30 41 C -1.4744 -0.9599 1.3333 0
M  V30 42 C -3.3079 -3.837 0.0074 0
M  V30 43 C 1.0328 6.3938 -1.9422 0
M  V30 44 C 2.7619 6.9465 -0.1749 0
M  V30 45 C -2.9131 1.8106 2.3478 0
M  V30 46 C -3.2514 -3.2354 -1.1902 0
M  V30 47 O -0.0594 6.6248 -1.0402 0
M  V30 48 C 2.1875 7.3409 -1.5429 0 CFG=1
M  V30 49 C -2.6814 2.2744 0.9162 0 CFG=2
M  V30 50 C -3.9599 2.5737 3.1339 0
M  V30 51 C -4.0039 -2.0494 -1.5281 0
M  V30 52 C -1.2886 6.0434 -1.4566 0
M  V30 53 O 3.2658 7.2963 -2.4898 0
M  V30 54 O -2.1604 3.6044 0.9811 0
M  V30 55 C -3.9155 2.2266 -0.0227 0
M  V30 56 C -3.8539 -1.4366 -2.7119 0
M  V30 57 C 3.0336 8.1005 -3.6517 0
M  V30 58 O -4.8503 3.2293 0.407 0
M  V30 59 C -3.4505 2.4975 -1.4701 0
M  V30 60 C -4.5183 -0.1374 -3.1012 0
M  V30 61 C 4.3014 8.12 -4.5037 0
M  V30 62 C -6.1565 3.0304 -0.1206 0
M  V30 63 O -3.7179 3.5494 -2.0599 0
M  V30 64 C -2.6651 1.3975 -2.1813 0
M  V30 65 C -3.4398 0.9192 -3.4264 0
M  V30 66 C -5.4203 -0.3696 -4.3146 0
M  V30 67 O 5.2653 9.0024 -3.9311 0
M  V30 68 C -1.2951 1.9501 -2.5698 0
M  V30 69 H 3.9679 -1.7934 -0.9475 0
M  V30 70 H 0.6465 -3.588 -0.1224 0
M  V30 71 H 1.3428 -5.0394 -0.851 0
M  V30 72 H 2.3073 -0.4344 -2.3592 0
M  V30 73 H 2.8907 -1.9369 -3.0601 0
M  V30 74 H -0.2326 -3.8847 -2.3992 0
M  V30 75 H 1.3977 -3.9972 -3.0579 0
M  V30 76 H 2.7014 -7.3261 1.8188 0
M  V30 77 H 3.4328 -3.5025 2.6656 0
M  V30 78 H 0.4823 -1.7336 -3.4255 0
M  V30 79 H 0.1839 -1.534 -1.6986 0
M  V30 80 H -0.3934 -4.3608 2.9123 0
M  V30 81 H 2.6425 -3.8884 5.223 0
M  V30 82 H 1.7281 -3.048 3.984 0
M  V30 83 H 5.1695 -5.2775 3.0209 0
M  V30 84 H 4.2515 -5.856 4.4266 0
M  V30 85 H 4.9253 -4.2218 4.4168 0
M  V30 86 H 2.722 0.726 2.0563 0
M  V30 87 H 0.1846 -7.3512 3.1073 0
M  V30 88 H -1.1522 -6.5368 3.8954 0
M  V30 89 H 0.2924 -4.6893 5.1305 0
M  V30 90 H 1.4139 -5.9768 4.7346 0
M  V30 91 H 2.6147 3.1823 1.6167 0
M  V30 92 H 0.2613 0.7821 0.3898 0
M  V30 93 H 0.4213 2.2883 1.3009 0
M  V30 94 H -1.9496 -7.6762 1.9063 0
M  V30 95 H 1.6651 2.4622 -0.9572 0
M  V30 96 H 3.3175 2.9246 -1.286 0
M  V30 97 H 4.9414 3.3243 0.729 0
M  V30 98 H 4.8352 1.6578 0.147 0
M  V30 99 H 4.7643 2.0001 1.8831 0
M  V30 100 H 1.2465 4.6194 0.2029 0
M  V30 101 H -1.0324 -0.8401 3.3605 0
M  V30 102 H -0.9415 -8.9414 0.27 0
M  V30 103 H 0.5309 -8.2946 -0.4794 0
M  V30 104 H 0.5065 -8.5903 1.2679 0
M  V30 105 H -1.7027 -5.1926 -0.4189 0
M  V30 106 H -4.2997 -4.9147 2.3214 0
M  V30 107 H -2.9344 -4.8985 3.4477 0
M  V30 108 H -3.7337 -6.4222 3.0059 0
M  V30 109 H 0.6874 4.2641 -2.1805 0
M  V30 110 H 2.2867 4.7886 -2.6727 0
M  V30 111 H 4.0618 5.3278 -0.7695 0
M  V30 112 H 3.5225 5.2603 0.9048 0
M  V30 113 H -2.4934 0.6618 4.038 0
M  V30 114 H -0.727 -1.7463 1.1926 0
M  V30 115 H -1.529 -0.4007 0.3996 0
M  V30 116 H -2.4429 -1.4488 1.4796 0
M  V30 117 H -3.977 -3.4539 0.7713 0
M  V30 118 H 0.7021 6.6333 -2.9592 0
M  V30 119 H 2.0159 7.1335 0.6072 0
M  V30 120 H 3.6333 7.5726 0.0524 0
M  V30 121 H -2.5778 -3.6216 -1.9524 0
M  V30 122 H 1.8163 8.3704 -1.4549 0
M  V30 123 H -1.8856 1.681 0.4728 0
M  V30 124 H -3.9306 2.3383 4.2038 0
M  V30 125 H -4.9639 2.3225 2.7794 0
M  V30 126 H -3.8092 3.6542 3.0475 0
M  V30 127 H -4.6697 -1.6378 -0.7733 0
M  V30 128 H -1.2429 4.9542 -1.3977 0
M  V30 129 H -2.0742 6.3859 -0.7773 0
M  V30 130 H -1.5453 6.3598 -2.4719 0
M  V30 131 H -2.9387 4.1974 0.9961 0
M  V30 132 H -4.3851 1.2362 0.0183 0
M  V30 133 H -3.1842 -1.8677 -3.4566 0
M  V30 134 H 2.7687 9.1194 -3.3481 0
M  V30 135 H 2.2171 7.6604 -4.2315 0
M  V30 136 H -5.1472 0.2296 -2.2805 0
M  V30 137 H 4.7432 7.1202 -4.5654 0
M  V30 138 H 4.0775 8.4853 -5.5102 0
M  V30 139 H -6.7976 3.8385 0.2418 0
M  V30 140 H -6.1537 3.0535 -1.2137 0
M  V30 141 H -6.566 2.0789 0.2321 0
M  V30 142 H -2.5048 0.5682 -1.4879 0
M  V30 143 H -3.9136 1.7763 -3.9225 0
M  V30 144 H -2.7366 0.4969 -4.1575 0
M  V30 145 H -5.9354 0.5554 -4.5955 0
M  V30 146 H -4.8477 -0.7128 -5.1838 0
M  V30 147 H -6.1858 -1.1227 -4.0962 0
M  V30 148 H 6.1199 8.7983 -4.3463 0
M  V30 149 H -0.7689 2.3327 -1.6894 0
M  V30 150 H -0.6736 1.1686 -3.0193 0
M  V30 151 H -1.3813 2.7731 -3.2877 0
M  V30 END ATOM
M  V30 BEGIN BOND
M  V30 1 2 1 2
M  V30 2 1 2 3
M  V30 3 1 2 4
M  V30 4 1 3 5
M  V30 5 1 3 6
M  V30 6 2 4 7
M  V30 7 1 4 8
M  V30 8 1 5 9
M  V30 9 1 5 10
M  V30 10 1 6 11
M  V30 11 1 8 12
M  V30 12 1 8 13
M  V30 13 1 8 14
M  V30 14 2 9 15
M  V30 15 1 9 16
M  V30 16 1 10 17
M  V30 17 1 12 18
M  V30 18 1 14 19
M  V30 19 1 14 20
M  V30 20 1 16 21
M  V30 21 1 18 22
M  V30 22 1 18 23
M  V30 23 1 21 24
M  V30 24 1 21 25
M  V30 25 1 22 26
M  V30 26 1 24 27
M  V30 27 1 24 28
M  V30 28 1 25 29
M  V30 29 1 26 30
M  V30 30 1 26 31
M  V30 31 1 27 32
M  V30 32 2 29 33
M  V30 33 1 29 34
M  V30 34 1 30 35
M  V30 35 2 31 36
M  V30 36 1 31 37
M  V30 37 1 32 38
M  V30 38 1 32 39
M  V30 39 1 34 40
M  V30 40 1 34 41
M  V30 41 1 36 42
M  V30 42 1 38 43
M  V30 43 1 39 44
M  V30 44 2 40 45
M  V30 45 2 42 46
M  V30 46 1 43 47
M  V30 47 1 43 48
M  V30 48 1 45 49
M  V30 49 1 45 50
M  V30 50 1 46 51
M  V30 51 1 47 52
M  V30 52 1 48 53
M  V30 53 1 49 54
M  V30 54 1 49 55
M  V30 55 2 51 56
M  V30 56 1 53 57
M  V30 57 1 55 58
M  V30 58 1 55 59
M  V30 59 1 56 60
M  V30 60 1 57 61
M  V30 61 1 58 62
M  V30 62 2 59 63
M  V30 63 1 59 64
M  V30 64 1 60 65
M  V30 65 1 60 66
M  V30 66 1 61 67
M  V30 67 1 64 68
M  V30 68 1 11 17
M  V30 69 1 19 23
M  V30 70 1 44 48
M  V30 71 1 64 65
M  V30 72 1 5 69
M  V30 73 1 6 70
M  V30 74 1 6 71
M  V30 75 1 10 72
M  V30 76 1 10 73
M  V30 77 1 11 74
M  V30 78 1 11 75
M  V30 79 1 13 76
M  V30 80 1 14 77
M  V30 81 1 17 78
M  V30 82 1 17 79
M  V30 83 1 18 80
M  V30 84 1 19 81
M  V30 85 1 19 82
M  V30 86 1 20 83
M  V30 87 1 20 84
M  V30 88 1 20 85
M  V30 89 1 21 86
M  V30 90 1 22 87
M  V30 91 1 22 88
M  V30 92 1 23 89
M  V30 93 1 23 90
M  V30 94 1 24 91
M  V30 95 1 25 92
M  V30 96 1 25 93
M  V30 97 1 26 94
M  V30 98 1 27 95
M  V30 99 1 27 96
M  V30 100 1 28 97
M  V30 101 1 28 98
M  V30 102 1 28 99
M  V30 103 1 32 100
M  V30 104 1 34 101
M  V30 105 1 35 102
M  V30 106 1 35 103
M  V30 107 1 35 104
M  V30 108 1 36 105
M  V30 109 1 37 106
M  V30 110 1 37 107
M  V30 111 1 37 108
M  V30 112 1 38 109
M  V30 113 1 38 110
M  V30 114 1 39 111
M  V30 115 1 39 112
M  V30 116 1 40 113
M  V30 117 1 41 114
M  V30 118 1 41 115
M  V30 119 1 41 116
M  V30 120 1 42 117
M  V30 121 1 43 118
M  V30 122 1 44 119
M  V30 123 1 44 120
M  V30 124 1 46 121
M  V30 125 1 48 122
M  V30 126 1 49 123
M  V30 127 1 50 124
M  V30 128 1 50 125
M  V30 129 1 50 126
M  V30 130 1 51 127
M  V30 131 1 52 128
M  V30 132 1 52 129
M  V30 133 1 52 130
M  V30 134 1 54 131
M  V30 135 1 55 132
M  V30 136 1 56 133
M  V30 137 1 57 134
M  V30 138 1 57 135
M  V30 139 1 60 136
M  V30 140 1 61 137
M  V30 141 1 61 138
M  V30 142 1 62 139
M  V30 143 1 62 140
M  V30 144 1 62 141
M  V30 145 1 64 142
M  V30 146 1 65 143
M  V30 147 1 65 144
M  V30 148 1 66 145
M  V30 149 1 66 146
M  V30 150 1 66 147
M  V30 151 1 67 148
M  V30 152 1 68 149
M  V30 153 1 68 150
M  V30 154 1 68 151
M  V30 END BOND
M  V30 BEGIN COLLECTION
M  V30 MDLV30/STEABS ATOMS=(6 8 14 26 34 48 49)
M  V30 END COLLECTION
M  V30 END CTAB
M  END
>  <level_0>
6813

>  <index>
6813

>  <NO.>
6814

>  <Name>
everolimus, rad001

>  <SMILES>
COC1C(=O)C(C)CC(C)/C=C/C=C/C=C(\C)[C@@H](OC)CC2CC[C@@H](C)[C@@](O)(O2)C(=O)C(=O)N2CCCCC2C(=O)OC(C(C)CC2CC[C@@H](OCCO)C(OC)C2)CC(=O)[C@H](C)C=C(C)[C@@H]1O

>  <logBB>


>  <Class>
1

>  <MW>
957.58

>  <nHBAcc>
14

>  <nHBDon>
3

>  <SLogP>
6.2

>  <TopoPSA>
204.66

>  <MMFF94 Energy>
255.2

$$$$
COC1CC(CC(C)C2CC(=O)[C@H](C)C=C(C)[C@H](O)C(OC)C(=O)C(C)CC(C)/C=C/C=C/C=C(\C)[C@@H](OC)CC3CC[C@@H](C)[C@@](O)(O3)C(=O)C(=O)N3CCCCC3C(=O)O2)CC[C@@H]1OC(=O)C(C)(CO)CO
Actelion Java MolfileCreator 2.0

  0  0  0  0  0  0              0 V3000
M  V30 BEGIN CTAB
M  V30 COUNTS 160 163 0 0 0
M  V30 BEGIN ATOM
M  V30 1 O -1.8227 0.5544 7.2267 0
M  V30 2 C -1.203 0.2464 6.2139 0
M  V30 3 N -0.5751 1.1556 5.3623 0
M  V30 4 C -1.0723 -1.2332 5.9081 0
M  V30 5 C 0.1341 0.7837 4.1145 0
M  V30 6 C -0.7474 2.5829 5.6271 0
M  V30 7 O 0.0151 -1.7898 6.0586 0
M  V30 8 C -2.3213 -1.9404 5.3561 0 CFG=1
M  V30 9 C -0.7288 0.9636 2.8482 0
M  V30 10 C 1.4519 1.5634 3.9893 0
M  V30 11 C 0.5725 3.3371 5.5293 0
M  V30 12 O -2.6122 -1.2553 4.1356 0
M  V30 13 O -1.9666 -3.2952 5.0735 0
M  V30 14 C -3.5025 -1.9126 6.3483 0 CFG=1
M  V30 15 O -1.7838 1.581 2.7877 0
M  V30 16 O -0.1095 0.3722 1.7796 0
M  V30 17 C 1.2584 3.0649 4.1965 0
M  V30 18 C -3.8296 -1.6144 3.4597 0
M  V30 19 C -4.7929 -2.3791 5.6641 0
M  V30 20 C -3.2445 -2.7484 7.6044 0
M  V30 21 C -0.7358 0.5532 0.4801 0
M  V30 22 C -3.6552 -2.9315 2.6831 0
M  V30 23 C -5.0257 -1.5525 4.4084 0
M  V30 24 C -0.3594 1.9735 -0.0475 0
M  V30 25 C -0.2619 -0.6207 -0.3899 0
M  V30 26 C -4.7748 -3.2022 1.6598 0 CFG=2
M  V30 27 C 1.157 2.1272 -0.3294 0
M  V30 28 C -1.2008 2.3593 -1.2684 0
M  V30 29 C -1.1292 -0.8312 -1.6132 0
M  V30 30 O -5.8891 -3.7907 2.3387 0
M  V30 31 C -4.2721 -4.1493 0.574 0
M  V30 32 C 1.787 3.446 0.1723 0
M  V30 33 O -2.3545 -0.9152 -1.5087 0
M  V30 34 C -0.4168 -0.9407 -2.969 0 CFG=1
M  V30 35 C -7.1043 -3.6808 1.6075 0
M  V30 36 C -4.0855 -3.6714 -0.673 0
M  V30 37 C -3.9572 -5.555 1.02 0
M  V30 38 C 1.1557 4.7098 -0.4377 0
M  V30 39 C 3.3053 3.4174 -0.086 0
M  V30 40 C 0.2994 -2.2658 -3.0716 0
M  V30 41 C -1.4129 -0.8057 -4.1211 0
M  V30 42 C -3.4918 -4.3476 -1.7993 0
M  V30 43 C 1.8475 5.9946 0.0403 0
M  V30 44 C 3.9981 4.7004 0.3625 0
M  V30 45 C 1.5916 -2.492 -3.3983 0
M  V30 46 C -3.9006 -5.5013 -2.3476 0
M  V30 47 O 1.6244 6.0896 1.4586 0
M  V30 48 C 3.3542 5.9313 -0.2791 0 CFG=2
M  V30 49 C 2.1169 -3.9241 -3.5006 0 CFG=2
M  V30 50 C 2.5995 -1.4122 -3.7063 0
M  V30 51 C -3.167 -6.1525 -3.4101 0
M  V30 52 C 1.2579 7.4016 1.866 0
M  V30 53 O 4.0022 7.1211 0.2117 0
M  V30 54 O 3.2527 -4.029 -2.637 0
M  V30 55 C 2.4665 -4.3285 -4.9633 0
M  V30 56 C -2.7069 -5.5231 -4.5027 0
M  V30 57 C 5.1175 7.5239 -0.4536 0
M  V30 58 O 3.8592 -4.0403 -5.1691 0
M  V30 59 C 2.1039 -5.814 -5.1818 0
M  V30 60 C -1.7625 -6.161 -5.4977 0
M  V30 61 O 5.5867 6.9372 -1.4227 0
M  V30 62 C 5.7083 8.8046 0.1353 0
M  V30 63 C 4.2729 -4.2083 -6.5184 0
M  V30 64 O 2.854 -6.723 -4.8169 0
M  V30 65 C 0.8151 -6.1483 -5.9528 0
M  V30 66 C -0.4016 -5.4496 -5.331 0
M  V30 67 C -2.3478 -6.057 -6.902 0
M  V30 68 C 4.9752 9.9998 -0.4943 0
M  V30 69 C 5.6607 8.7786 1.6777 0
M  V30 70 C 7.1948 8.8596 -0.2802 0
M  V30 71 C 1.0286 -5.8218 -7.4283 0
M  V30 72 O 3.5992 10.0751 -0.1362 0
M  V30 73 O 4.4198 9.253 2.2003 0
M  V30 74 H 0.3715 -0.2829 4.1494 0
M  V30 75 H -1.182 2.746 6.6188 0
M  V30 76 H -1.4662 2.9763 4.9004 0
M  V30 77 H 1.924 1.3893 3.016 0
M  V30 78 H 2.1522 1.1947 4.7501 0
M  V30 79 H 0.3969 4.4121 5.6463 0
M  V30 80 H 1.2337 3.0254 6.3473 0
M  V30 81 H -0.9907 -3.3293 5.0616 0
M  V30 82 H -3.6874 -0.8797 6.6649 0
M  V30 83 H 2.2297 3.5709 4.1678 0
M  V30 84 H 0.6534 3.4818 3.3832 0
M  V30 85 H -3.9705 -0.8242 2.7114 0
M  V30 86 H -5.6443 -2.2546 6.3441 0
M  V30 87 H -4.7402 -3.4453 5.4156 0
M  V30 88 H -4.0851 -2.6623 8.3016 0
M  V30 89 H -2.3462 -2.4071 8.1282 0
M  V30 90 H -3.1185 -3.8097 7.3666 0
M  V30 91 H -1.8239 0.4843 0.6086 0
M  V30 92 H -3.5996 -3.7709 3.3835 0
M  V30 93 H -2.6826 -2.8828 2.1747 0
M  V30 94 H -5.9534 -1.8545 3.9159 0
M  V30 95 H -5.1678 -0.5074 4.7151 0
M  V30 96 H -0.6179 2.6819 0.7492 0
M  V30 97 H -0.2983 -1.5537 0.1869 0
M  V30 98 H 0.7843 -0.5052 -0.6866 0
M  V30 99 H -5.0861 -2.2442 1.2224 0
M  V30 100 H 1.7044 1.3194 0.1715 0
M  V30 101 H 1.3542 2.0069 -1.4022 0
M  V30 102 H -2.2637 2.1707 -1.0849 0
M  V30 103 H -1.0986 3.4223 -1.5021 0
M  V30 104 H -0.9037 1.8091 -2.1634 0
M  V30 105 H 1.6408 3.4832 1.2583 0
M  V30 106 H 0.267 -0.0903 -3.0257 0
M  V30 107 H -7.0415 -4.215 0.6553 0
M  V30 108 H -7.9018 -4.1327 2.2035 0
M  V30 109 H -7.3549 -2.6296 1.4359 0
M  V30 110 H -4.2926 -2.6186 -0.8731 0
M  V30 111 H -3.2875 -5.5495 1.8853 0
M  V30 112 H -3.4582 -6.1513 0.2529 0
M  V30 113 H -4.877 -6.0786 1.2993 0
M  V30 114 H 1.1964 4.6556 -1.5323 0
M  V30 115 H 0.102 4.7661 -0.144 0
M  V30 116 H 3.4943 3.2648 -1.1564 0
M  V30 117 H 3.7568 2.5668 0.4387 0
M  V30 118 H -0.3369 -3.1292 -2.8683 0
M  V30 119 H -2.1501 -1.6173 -4.1182 0
M  V30 120 H -0.898 -0.8212 -5.0879 0
M  V30 121 H -1.9641 0.1384 -4.0489 0
M  V30 122 H -2.6409 -3.8169 -2.2203 0
M  V30 123 H 1.3966 6.8566 -0.4683 0
M  V30 124 H 5.0622 4.6534 0.103 0
M  V30 125 H 3.9668 4.7849 1.4563 0
M  V30 126 H -4.7467 -6.0444 -1.9338 0
M  V30 127 H 3.456 5.8764 -1.3713 0
M  V30 128 H 1.3726 -4.6087 -3.0835 0
M  V30 129 H 3.4607 -1.4873 -3.0348 0
M  V30 130 H 2.2043 -0.4009 -3.5967 0
M  V30 131 H 2.9544 -1.5029 -4.7374 0
M  V30 132 H -2.9547 -7.2076 -3.2482 0
M  V30 133 H 0.2831 7.6668 1.4454 0
M  V30 134 H 1.1795 7.4125 2.9563 0
M  V30 135 H 2.0076 8.1346 1.5619 0
M  V30 136 H 4.0197 -4.1628 -3.231 0
M  V30 137 H 1.8783 -3.7292 -5.6679 0
M  V30 138 H -2.9413 -4.4704 -4.657 0
M  V30 139 H -1.6416 -7.2239 -5.2523 0
M  V30 140 H 4.2135 -5.2582 -6.8169 0
M  V30 141 H 5.3154 -3.8884 -6.5974 0
M  V30 142 H 3.668 -3.5888 -7.1873 0
M  V30 143 H 0.6827 -7.2336 -5.8543 0
M  V30 144 H -0.4711 -4.4152 -5.6939 0
M  V30 145 H -0.2216 -5.3767 -4.2523 0
M  V30 146 H -3.3913 -6.3921 -6.9199 0
M  V30 147 H -1.8012 -6.6931 -7.6023 0
M  V30 148 H -2.3197 -5.028 -7.2768 0
M  V30 149 H 5.0197 9.955 -1.5882 0
M  V30 150 H 5.4433 10.9414 -0.1857 0
M  V30 151 H 6.4361 9.4292 2.0974 0
M  V30 152 H 5.8318 7.7662 2.0618 0
M  V30 153 H 7.7429 7.9875 0.0952 0
M  V30 154 H 7.3088 8.8739 -1.3705 0
M  V30 155 H 7.683 9.7595 0.1107 0
M  V30 156 H 1.9908 -6.2117 -7.7784 0
M  V30 157 H 1.028 -4.7419 -7.6087 0
M  V30 158 H 0.2546 -6.2669 -8.0561 0
M  V30 159 H 3.5617 9.9149 0.8328 0
M  V30 160 H 4.4284 9.0643 3.1576 0
M  V30 END ATOM
M  V30 BEGIN BOND
M  V30 1 2 1 2
M  V30 2 1 2 3
M  V30 3 1 2 4
M  V30 4 1 3 5
M  V30 5 1 3 6
M  V30 6 2 4 7
M  V30 7 1 4 8
M  V30 8 1 5 9
M  V30 9 1 5 10
M  V30 10 1 6 11
M  V30 11 1 8 12
M  V30 12 1 8 13
M  V30 13 1 8 14
M  V30 14 2 9 15
M  V30 15 1 9 16
M  V30 16 1 10 17
M  V30 17 1 12 18
M  V30 18 1 14 19
M  V30 19 1 14 20
M  V30 20 1 16 21
M  V30 21 1 18 22
M  V30 22 1 18 23
M  V30 23 1 21 24
M  V30 24 1 21 25
M  V30 25 1 22 26
M  V30 26 1 24 27
M  V30 27 1 24 28
M  V30 28 1 25 29
M  V30 29 1 26 30
M  V30 30 1 26 31
M  V30 31 1 27 32
M  V30 32 2 29 33
M  V30 33 1 29 34
M  V30 34 1 30 35
M  V30 35 2 31 36
M  V30 36 1 31 37
M  V30 37 1 32 38
M  V30 38 1 32 39
M  V30 39 1 34 40
M  V30 40 1 34 41
M  V30 41 1 36 42
M  V30 42 1 38 43
M  V30 43 1 39 44
M  V30 44 2 40 45
M  V30 45 2 42 46
M  V30 46 1 43 47
M  V30 47 1 43 48
M  V30 48 1 45 49
M  V30 49 1 45 50
M  V30 50 1 46 51
M  V30 51 1 47 52
M  V30 52 1 48 53
M  V30 53 1 49 54
M  V30 54 1 49 55
M  V30 55 2 51 56
M  V30 56 1 53 57
M  V30 57 1 55 58
M  V30 58 1 55 59
M  V30 59 1 56 60
M  V30 60 2 57 61
M  V30 61 1 57 62
M  V30 62 1 58 63
M  V30 63 2 59 64
M  V30 64 1 59 65
M  V30 65 1 60 66
M  V30 66 1 60 67
M  V30 67 1 62 68
M  V30 68 1 62 69
M  V30 69 1 62 70
M  V30 70 1 65 71
M  V30 71 1 68 72
M  V30 72 1 69 73
M  V30 73 1 11 17
M  V30 74 1 19 23
M  V30 75 1 44 48
M  V30 76 1 65 66
M  V30 77 1 5 74
M  V30 78 1 6 75
M  V30 79 1 6 76
M  V30 80 1 10 77
M  V30 81 1 10 78
M  V30 82 1 11 79
M  V30 83 1 11 80
M  V30 84 1 13 81
M  V30 85 1 14 82
M  V30 86 1 17 83
M  V30 87 1 17 84
M  V30 88 1 18 85
M  V30 89 1 19 86
M  V30 90 1 19 87
M  V30 91 1 20 88
M  V30 92 1 20 89
M  V30 93 1 20 90
M  V30 94 1 21 91
M  V30 95 1 22 92
M  V30 96 1 22 93
M  V30 97 1 23 94
M  V30 98 1 23 95
M  V30 99 1 24 96
M  V30 100 1 25 97
M  V30 101 1 25 98
M  V30 102 1 26 99
M  V30 103 1 27 100
M  V30 104 1 27 101
M  V30 105 1 28 102
M  V30 106 1 28 103
M  V30 107 1 28 104
M  V30 108 1 32 105
M  V30 109 1 34 106
M  V30 110 1 35 107
M  V30 111 1 35 108
M  V30 112 1 35 109
M  V30 113 1 36 110
M  V30 114 1 37 111
M  V30 115 1 37 112
M  V30 116 1 37 113
M  V30 117 1 38 114
M  V30 118 1 38 115
M  V30 119 1 39 116
M  V30 120 1 39 117
M  V30 121 1 40 118
M  V30 122 1 41 119
M  V30 123 1 41 120
M  V30 124 1 41 121
M  V30 125 1 42 122
M  V30 126 1 43 123
M  V30 127 1 44 124
M  V30 128 1 44 125
M  V30 129 1 46 126
M  V30 130 1 48 127
M  V30 131 1 49 128
M  V30 132 1 50 129
M  V30 133 1 50 130
M  V30 134 1 50 131
M  V30 135 1 51 132
M  V30 136 1 52 133
M  V30 137 1 52 134
M  V30 138 1 52 135
M  V30 139 1 54 136
M  V30 140 1 55 137
M  V30 141 1 56 138
M  V30 142 1 60 139
M  V30 143 1 63 140
M  V30 144 1 63 141
M  V30 145 1 63 142
M  V30 146 1 65 143
M  V30 147 1 66 144
M  V30 148 1 66 145
M  V30 149 1 67 146
M  V30 150 1 67 147
M  V30 151 1 67 148
M  V30 152 1 68 149
M  V30 153 1 68 150
M  V30 154 1 69 151
M  V30 155 1 69 152
M  V30 156 1 70 153
M  V30 157 1 70 154
M  V30 158 1 70 155
M  V30 159 1 71 156
M  V30 160 1 71 157
M  V30 161 1 71 158
M  V30 162 1 72 159
M  V30 163 1 73 160
M  V30 END BOND
M  V30 BEGIN COLLECTION
M  V30 MDLV30/STEABS ATOMS=(6 8 14 26 34 48 49)
M  V30 END COLLECTION
M  V30 END CTAB
M  END
>  <level_0>
6814

>  <index>
6814

>  <NO.>
6815

>  <Name>
temsirolimus

>  <SMILES>
COC1CC(CC(C)C2CC(=O)[C@H](C)C=C(C)[C@H](O)C(OC)C(=O)C(C)CC(C)/C=C/C=C/C=C(\C)[C@@H](OC)CC3CC[C@@H](C)[C@@](O)(O3)C(=O)C(=O)N3CCCCC3C(=O)O2)CC[C@@H]1OC(=O)C(C)(CO)CO

>  <logBB>


>  <Class>
1

>  <MW>
1029.6

>  <nHBAcc>
16

>  <nHBDon>
4

>  <SLogP>
5.72

>  <TopoPSA>
241.96

>  <MMFF94 Energy>
232.42

$$$$
O=C1CNC(=O)N1
Actelion Java MolfileCreator 2.0

  0  0  0  0  0  0              0 V3000
M  V30 BEGIN CTAB
M  V30 COUNTS 11 11 0 0 0
M  V30 BEGIN ATOM
M  V30 1 O 1.6337 1.8672 0.0777 0
M  V30 2 C 0.8455 0.9422 0.0099 0
M  V30 3 N 0.941 -0.1364 -0.8018 0
M  V30 4 N -0.3021 0.8236 0.757 0
M  V30 5 C -0.1138 -0.9751 -0.6175 0
M  V30 6 C -1.0223 -0.3811 0.4474 0
M  V30 7 O -0.2962 -2.0269 -1.2101 0
M  V30 8 H 1.6932 -0.2896 -1.4505 0
M  V30 9 H -0.5667 1.5282 1.4332 0
M  V30 10 H -1.075 -1.0196 1.3306 0
M  V30 11 H -2.0048 -0.1331 0.0431 0
M  V30 END ATOM
M  V30 BEGIN BOND
M  V30 1 2 1 2
M  V30 2 1 2 3
M  V30 3 1 2 4
M  V30 4 1 3 5
M  V30 5 1 4 6
M  V30 6 2 5 7
M  V30 7 1 5 6
M  V30 8 1 3 8
M  V30 9 1 4 9
M  V30 10 1 6 10
M  V30 11 1 6 11
M  V30 END BOND
M  V30 END CTAB
M  END
>  <level_0>
6818

>  <index>
6818

>  <NO.>
6819

>  <Name>
hydantoin

>  <SMILES>
O=C1CNC(=O)N1

>  <logBB>


>  <Class>
1

>  <MW>
100.03

>  <nHBAcc>
2

>  <nHBDon>
2

>  <SLogP>
-1.17

>  <TopoPSA>
58.2

>  <MMFF94 Energy>
-76.459

$$$$
C#C[C@@]1(O)CC[C@@H]2[C@@H]3CC[C@@H]4CC(=O)CCC4=C3[C@H](c3ccc(N(C)C)cc3)C[C@@]21C
Actelion Java MolfileCreator 2.0

  0  0  0  0  0  0              0 V3000
M  V30 BEGIN CTAB
M  V30 COUNTS 66 70 0 0 0
M  V30 BEGIN ATOM
M  V30 1 O -3.8544 4.6588 1.7652 0
M  V30 2 C -3.0289 3.8166 1.4107 0
M  V30 3 C -1.6443 3.7743 2.0119 0
M  V30 4 C -3.3648 2.7833 0.3626 0
M  V30 5 C -0.6225 3.3266 0.9603 0 CFG=2
M  V30 6 C -2.4361 1.5794 0.4789 0
M  V30 7 C -0.9795 1.9802 0.3393 0
M  V30 8 C 0.7695 3.2758 1.5951 0
M  V30 9 C -0.0303 1.2663 -0.3265 0
M  V30 10 C 1.8435 2.679 0.6859 0
M  V30 11 C -0.3086 -0.0817 -1.0006 0 CFG=2
M  V30 12 C 1.3022 1.9656 -0.5697 0 CFG=1
M  V30 13 C -0.8942 -1.1324 -0.0525 0
M  V30 14 C 0.8666 -0.7544 -1.7409 0
M  V30 15 C 2.4093 1.1858 -1.3022 0 CFG=2
M  V30 16 C -0.3794 -1.3387 1.2306 0
M  V30 17 C -1.9452 -1.9516 -0.4729 0
M  V30 18 C 1.8983 0.2097 -2.3769 0 CFG=1
M  V30 19 C 3.3384 0.3137 -0.4402 0
M  V30 20 C -0.9247 -2.3178 2.0743 0
M  V30 21 C -2.4805 -2.9277 0.3807 0
M  V30 22 C 3.2099 -0.5545 -2.7428 0 CFG=1
M  V30 23 C 1.2513 0.9215 -3.5773 0
M  V30 24 C 3.909 -0.7577 -1.3821 0
M  V30 25 C -1.9929 -3.1411 1.681 0
M  V30 26 O 2.9212 -1.8103 -3.3408 0
M  V30 27 C 4.1014 0.1937 -3.6579 0
M  V30 28 N -2.5315 -4.1075 2.5239 0
M  V30 29 C 4.8326 0.7876 -4.4038 0
M  V30 30 C -3.6304 -4.959 2.0878 0
M  V30 31 C -2.0099 -4.3085 3.8693 0
M  V30 32 H -1.6681 3.0925 2.8701 0
M  V30 33 H -1.3935 4.777 2.3767 0
M  V30 34 H -3.2751 3.2528 -0.6231 0
M  V30 35 H -4.402 2.4635 0.5082 0
M  V30 36 H -0.6234 4.0707 0.1506 0
M  V30 37 H -2.7378 0.8659 -0.2918 0
M  V30 38 H -2.5766 1.0975 1.4545 0
M  V30 39 H 0.7268 2.6721 2.5127 0
M  V30 40 H 1.077 4.2797 1.9137 0
M  V30 41 H 2.5281 3.4761 0.3676 0
M  V30 42 H 2.4446 1.9992 1.3002 0
M  V30 43 H -1.0639 0.1367 -1.7704 0
M  V30 44 H 1.0391 2.7702 -1.2777 0
M  V30 45 H 0.4541 -1.4119 -2.5204 0
M  V30 46 H 1.3768 -1.4419 -1.0538 0
M  V30 47 H 3.0515 1.9406 -1.782 0
M  V30 48 H 0.4506 -0.7376 1.5939 0
M  V30 49 H -2.3636 -1.8408 -1.4707 0
M  V30 50 H 4.1439 0.9089 0.0036 0
M  V30 51 H 2.7955 -0.1678 0.381 0
M  V30 52 H -0.4796 -2.4178 3.0597 0
M  V30 53 H -3.2995 -3.5241 -0.01 0
M  V30 54 H 1.8978 1.7058 -3.9845 0
M  V30 55 H 0.308 1.4069 -3.3075 0
M  V30 56 H 1.0362 0.2099 -4.3821 0
M  V30 57 H 3.7115 -1.7562 -0.9731 0
M  V30 58 H 4.9996 -0.6654 -1.4523 0
M  V30 59 H 3.7737 -2.2181 -3.5691 0
M  V30 60 H 5.4763 1.3148 -5.0699 0
M  V30 61 H -4.5144 -4.3602 1.8418 0
M  V30 62 H -3.9348 -5.6665 2.8668 0
M  V30 63 H -3.3399 -5.5548 1.2155 0
M  V30 64 H -0.9563 -4.6071 3.8387 0
M  V30 65 H -2.5478 -5.0992 4.4037 0
M  V30 66 H -2.1127 -3.3967 4.4683 0
M  V30 END ATOM
M  V30 BEGIN BOND
M  V30 1 2 1 2
M  V30 2 1 2 3
M  V30 3 1 2 4
M  V30 4 1 3 5
M  V30 5 1 4 6
M  V30 6 1 5 7
M  V30 7 1 5 8
M  V30 8 2 7 9
M  V30 9 1 8 10
M  V30 10 1 9 11
M  V30 11 1 9 12
M  V30 12 1 11 13
M  V30 13 1 11 14
M  V30 14 1 12 15
M  V30 15 2 13 16
M  V30 16 1 13 17
M  V30 17 1 14 18
M  V30 18 1 15 19
M  V30 19 1 16 20
M  V30 20 2 17 21
M  V30 21 1 18 22
M  V30 22 1 18 23
M  V30 23 1 19 24
M  V30 24 2 20 25
M  V30 25 1 22 26
M  V30 26 1 22 27
M  V30 27 1 25 28
M  V30 28 3 27 29
M  V30 29 1 28 30
M  V30 30 1 28 31
M  V30 31 1 6 7
M  V30 32 1 10 12
M  V30 33 1 15 18
M  V30 34 1 21 25
M  V30 35 1 22 24
M  V30 36 1 3 32
M  V30 37 1 3 33
M  V30 38 1 4 34
M  V30 39 1 4 35
M  V30 40 1 5 36
M  V30 41 1 6 37
M  V30 42 1 6 38
M  V30 43 1 8 39
M  V30 44 1 8 40
M  V30 45 1 10 41
M  V30 46 1 10 42
M  V30 47 1 11 43
M  V30 48 1 12 44
M  V30 49 1 14 45
M  V30 50 1 14 46
M  V30 51 1 15 47
M  V30 52 1 16 48
M  V30 53 1 17 49
M  V30 54 1 19 50
M  V30 55 1 19 51
M  V30 56 1 20 52
M  V30 57 1 21 53
M  V30 58 1 23 54
M  V30 59 1 23 55
M  V30 60 1 23 56
M  V30 61 1 24 57
M  V30 62 1 24 58
M  V30 63 1 26 59
M  V30 64 1 29 60
M  V30 65 1 30 61
M  V30 66 1 30 62
M  V30 67 1 30 63
M  V30 68 1 31 64
M  V30 69 1 31 65
M  V30 70 1 31 66
M  V30 END BOND
M  V30 BEGIN COLLECTION
M  V30 MDLV30/STEABS ATOMS=(6 5 11 12 15 18 22)
M  V30 END COLLECTION
M  V30 END CTAB
M  END
>  <level_0>
6828

>  <index>
6828

>  <NO.>
6829

>  <Name>


>  <SMILES>
C#C[C@@]1(O)CC[C@@H]2[C@@H]3CC[C@@H]4CC(=O)CCC4=C3[C@H](c3ccc(N(C)C)cc3)C[C@@]21C

>  <logBB>


>  <Class>
1

>  <MW>
417.27

>  <nHBAcc>
3

>  <nHBDon>
1

>  <SLogP>
5.1

>  <TopoPSA>
40.54

>  <MMFF94 Energy>
93.233

$$$$
C=CC[N@+]12CC[C@@]34c5ccccc5N5C=C6[C@H]7C[C@H]8[C@]9(CC[N@@+]8(CC=C)C/C7=C\CO)c7ccccc7N(C=C([C@@H]53)[C@H](C[C@H]41)/C(=C/CO)C2)[C@@H]69
Actelion Java MolfileCreator 2.0

  0  0  0  0  0  0              0 V3000
M  V30 BEGIN CTAB
M  V30 COUNTS 100 110 0 0 0
M  V30 BEGIN ATOM
M  V30 1 O -3.1703 4.962 0.406 0
M  V30 2 C -3.1553 4.7628 1.8062 0
M  V30 3 C -2.7927 3.3351 2.0634 0
M  V30 4 C -1.7696 2.835 2.7909 0
M  V30 5 C -1.653 1.2633 2.8887 0 CFG=1
M  V30 6 C -0.7361 3.7659 3.567 0
M  V30 7 C -1.0904 0.4265 1.6648 0
M  V30 8 C -0.5275 1.0541 3.8364 0
M  V30 9 N 0.719 3.1813 3.8285 0 CHG=1 CFG=1
M  V30 10 C -1.3414 -0.894 1.5959 0
M  V30 11 C -0.1841 1.2846 0.8551 0 CFG=2
M  V30 12 C 0.6227 1.8445 3.2208 0 CFG=2
M  V30 13 C 1.9932 3.6699 3.0133 0
M  V30 14 C 1.0556 3.2396 5.323 0
M  V30 15 N -0.8179 -1.9266 0.8427 0
M  V30 16 N 0.2883 1.1469 -0.517 0
M  V30 17 C 0.742 2.2281 1.6368 0 CFG=1
M  V30 18 C 2.2 2.6299 1.8378 0
M  V30 19 C 1.2728 4.6384 5.8166 0
M  V30 20 C -0.6769 -3.2587 1.3357 0
M  V30 21 C 0.113 -1.8443 -0.307 0 CFG=2
M  V30 22 C 0.5151 2.5773 -0.7321 0
M  V30 23 C -0.2868 0.3296 -1.4621 0
M  V30 24 C 0.526 3.2982 0.5134 0
M  V30 25 C 0.4461 5.2966 6.6415 0
M  V30 26 C 0.1186 -4.063 0.5125 0
M  V30 27 C -1.1944 -3.7931 2.5103 0
M  V30 28 C -0.4779 -0.999 -1.4159 0
M  V30 29 C 0.4824 -3.3075 -0.7364 0 CFG=1
M  V30 30 C 0.5558 3.2265 -1.9572 0
M  V30 31 C 0.4577 4.6867 0.4786 0
M  V30 32 C 0.4229 -5.3806 0.8467 0
M  V30 33 C -0.9005 -5.1168 2.8542 0
M  V30 34 C -1.2828 -1.6659 -2.5213 0 CFG=1
M  V30 35 C -0.3549 -3.8566 -1.9102 0 CFG=1
M  V30 36 C 1.9498 -3.4663 -1.1623 0
M  V30 37 C 0.5313 4.6187 -1.9632 0
M  V30 38 C 0.4589 5.337 -0.7624 0
M  V30 39 C -0.0916 -5.9037 2.0301 0
M  V30 40 C -0.5279 -1.683 -3.8406 0
M  V30 41 C -1.636 -3.0988 -2.1854 0
M  V30 42 N 0.6037 -3.8565 -3.1286 0 CHG=1 CFG=2
M  V30 43 C 1.9227 -4.2517 -2.4686 0
M  V30 44 C -1.0148 -1.0263 -4.9167 0
M  V30 45 C 0.7513 -2.4704 -3.8069 0
M  V30 46 C 0.1485 -4.897 -4.1656 0
M  V30 47 C -0.4071 -0.8142 -6.2719 0
M  V30 48 C 1.1529 -5.2215 -5.2287 0
M  V30 49 O 1.0009 -0.9449 -6.2116 0
M  V30 50 C 1.023 -4.9006 -6.5236 0
M  V30 51 H -2.3017 4.7223 0.042 0
M  V30 52 H -2.4662 5.4807 2.2553 0
M  V30 53 H -4.1578 4.967 2.1939 0
M  V30 54 H -3.4798 2.635 1.5817 0
M  V30 55 H -2.5861 0.8327 3.2696 0
M  V30 56 H -0.5936 4.7393 3.1007 0
M  V30 57 H -1.1789 3.9351 4.5553 0
M  V30 58 H -0.8023 1.3552 4.8516 0
M  V30 59 H -0.2481 -0.0043 3.9351 0
M  V30 60 H -2.0453 -1.2798 2.3324 0
M  V30 61 H -1.0963 1.8779 0.6014 0
M  V30 62 H 1.5038 1.2685 3.5506 0
M  V30 63 H 2.8671 3.623 3.6727 0
M  V30 64 H 1.8257 4.7067 2.7265 0
M  V30 65 H 0.2431 2.7624 5.8785 0
M  V30 66 H 1.9576 2.6376 5.4834 0
M  V30 67 H 2.7573 3.0975 1.0151 0
M  V30 68 H 2.8341 1.7905 2.1541 0
M  V30 69 H 2.1939 5.1374 5.5213 0
M  V30 70 H 1.032 -1.3687 0.0684 0
M  V30 71 H -0.6897 0.8822 -2.3105 0
M  V30 72 H -0.4761 4.8647 7.0208 0
M  V30 73 H 0.6875 6.3017 6.9842 0
M  V30 74 H -1.8223 -3.218 3.1814 0
M  V30 75 H 0.5714 2.6844 -2.8962 0
M  V30 76 H 0.4318 5.32 1.3539 0
M  V30 77 H 1.0369 -6.012 0.2121 0
M  V30 78 H -1.3036 -5.539 3.7734 0
M  V30 79 H -2.2285 -1.1165 -2.6305 0
M  V30 80 H -0.607 -4.9118 -1.7383 0
M  V30 81 H 2.575 -3.9731 -0.4193 0
M  V30 82 H 2.4171 -2.4904 -1.3385 0
M  V30 83 H 0.5458 5.156 -2.9104 0
M  V30 84 H 0.4227 6.4262 -0.8028 0
M  V30 85 H 0.1271 -6.9313 2.3162 0
M  V30 86 H -2.1976 -3.5658 -3.0041 0
M  V30 87 H -2.2971 -3.1387 -1.3108 0
M  V30 88 H 1.8904 -5.3302 -2.2748 0
M  V30 89 H 2.7566 -4.0126 -3.136 0
M  V30 90 H -1.9793 -0.5244 -4.818 0
M  V30 91 H 1.1878 -2.6609 -4.7843 0
M  V30 92 H 1.4958 -1.8978 -3.2442 0
M  V30 93 H -0.7864 -4.5258 -4.6003 0
M  V30 94 H -0.0831 -5.8201 -3.621 0
M  V30 95 H -0.6373 0.1996 -6.6151 0
M  V30 96 H -0.8135 -1.5329 -6.9893 0
M  V30 97 H 2.0222 -5.8058 -4.9345 0
M  V30 98 H 1.34 -0.6514 -7.0783 0
M  V30 99 H 0.1699 -4.3463 -6.9057 0
M  V30 100 H 1.7778 -5.197 -7.2491 0
M  V30 END ATOM
M  V30 BEGIN BOND
M  V30 1 1 1 2
M  V30 2 1 2 3
M  V30 3 2 3 4
M  V30 4 1 4 5
M  V30 5 1 4 6
M  V30 6 1 5 7
M  V30 7 1 5 8
M  V30 8 1 6 9
M  V30 9 2 7 10
M  V30 10 1 7 11
M  V30 11 1 8 12
M  V30 12 1 9 13
M  V30 13 1 9 14
M  V30 14 1 10 15
M  V30 15 1 11 16
M  V30 16 1 11 17
M  V30 17 1 13 18
M  V30 18 1 14 19
M  V30 19 1 15 20
M  V30 20 1 15 21
M  V30 21 1 16 22
M  V30 22 1 16 23
M  V30 23 1 17 24
M  V30 24 2 19 25
M  V30 25 2 20 26
M  V30 26 1 20 27
M  V30 27 1 21 28
M  V30 28 1 21 29
M  V30 29 1 22 30
M  V30 30 1 24 31
M  V30 31 1 26 32
M  V30 32 2 27 33
M  V30 33 1 28 34
M  V30 34 1 29 35
M  V30 35 1 29 36
M  V30 36 2 30 37
M  V30 37 2 31 38
M  V30 38 2 32 39
M  V30 39 1 34 40
M  V30 40 1 34 41
M  V30 41 1 35 42
M  V30 42 1 36 43
M  V30 43 2 40 44
M  V30 44 1 40 45
M  V30 45 1 42 46
M  V30 46 1 44 47
M  V30 47 1 46 48
M  V30 48 1 47 49
M  V30 49 2 48 50
M  V30 50 1 9 12
M  V30 51 1 12 17
M  V30 52 1 17 18
M  V30 53 2 22 24
M  V30 54 2 23 28
M  V30 55 1 26 29
M  V30 56 1 33 39
M  V30 57 1 35 41
M  V30 58 1 37 38
M  V30 59 1 42 43
M  V30 60 1 42 45
M  V30 61 1 1 51
M  V30 62 1 2 52
M  V30 63 1 2 53
M  V30 64 1 3 54
M  V30 65 1 5 55
M  V30 66 1 6 56
M  V30 67 1 6 57
M  V30 68 1 8 58
M  V30 69 1 8 59
M  V30 70 1 10 60
M  V30 71 1 11 61
M  V30 72 1 12 62
M  V30 73 1 13 63
M  V30 74 1 13 64
M  V30 75 1 14 65
M  V30 76 1 14 66
M  V30 77 1 18 67
M  V30 78 1 18 68
M  V30 79 1 19 69
M  V30 80 1 21 70
M  V30 81 1 23 71
M  V30 82 1 25 72
M  V30 83 1 25 73
M  V30 84 1 27 74
M  V30 85 1 30 75
M  V30 86 1 31 76
M  V30 87 1 32 77
M  V30 88 1 33 78
M  V30 89 1 34 79
M  V30 90 1 35 80
M  V30 91 1 36 81
M  V30 92 1 36 82
M  V30 93 1 37 83
M  V30 94 1 38 84
M  V30 95 1 39 85
M  V30 96 1 41 86
M  V30 97 1 41 87
M  V30 98 1 43 88
M  V30 99 1 43 89
M  V30 100 1 44 90
M  V30 101 1 45 91
M  V30 102 1 45 92
M  V30 103 1 46 93
M  V30 104 1 46 94
M  V30 105 1 47 95
M  V30 106 1 47 96
M  V30 107 1 48 97
M  V30 108 1 49 98
M  V30 109 1 50 99
M  V30 110 1 50 100
M  V30 END BOND
M  V30 BEGIN COLLECTION
M  V30 MDLV30/STEABS ATOMS=(10 5 9 11 12 17 21 29 34 35 42)
M  V30 END COLLECTION
M  V30 END CTAB
M  END
>  <level_0>
6865

>  <index>
6865

>  <NO.>
6866

>  <Name>


>  <SMILES>
C=CC[N@+]12CC[C@@]34c5ccccc5N5C=C6[C@H]7C[C@H]8[C@]9(CC[N@@+]8(CC=C)C/C7=C\CO)c7ccccc7N(C=C([C@@H]53)[C@H](C[C@H]41)/C(=C/CO)C2)[C@@H]69

>  <logBB>


>  <Class>
-1

>  <MW>
666.39

>  <nHBAcc>
4

>  <nHBDon>
2

>  <SLogP>
5.48

>  <TopoPSA>
46.94

>  <MMFF94 Energy>
240.45

$$$$
CC#Cc1cn([C@@H]2O[C@H](CO)[C@@H](O)[C@H]2O)c(=O)[nH]c1=O
Actelion Java MolfileCreator 2.0

  0  0  0  0  0  0              0 V3000
M  V30 BEGIN CTAB
M  V30 COUNTS 34 35 0 0 0
M  V30 BEGIN ATOM
M  V30 1 O 1.1139 3.1055 -0.0795 0
M  V30 2 C 1.2446 1.9904 -0.5809 0
M  V30 3 N 0.7355 0.8278 -0.0186 0
M  V30 4 N 1.9066 1.8439 -1.7679 0
M  V30 5 C 0.9455 -0.4042 -0.6196 0
M  V30 6 C 0.0477 0.9435 1.2797 0 CFG=2
M  V30 7 C 2.1214 0.6717 -2.4387 0
M  V30 8 C 1.5957 -0.5525 -1.7814 0
M  V30 9 O -0.3933 -0.3527 1.7327 0
M  V30 10 C -1.1997 1.8513 1.2527 0 CFG=2
M  V30 11 O 2.7144 0.6516 -3.5122 0
M  V30 12 C 1.781 -1.8386 -2.3598 0
M  V30 13 C -1.6975 -0.2143 2.3481 0 CFG=1
M  V30 14 O -0.9481 3.2357 1.5198 0
M  V30 15 C -2.0237 1.2729 2.3865 0 CFG=1
M  V30 16 C 1.9362 -2.9254 -2.847 0
M  V30 17 C -2.7038 -1.0315 1.5354 0
M  V30 18 O -1.5603 1.8312 3.6286 0
M  V30 19 C 2.1342 -4.2423 -3.452 0
M  V30 20 O -2.765 -0.585 0.1831 0
M  V30 21 H 2.2707 2.6812 -2.1961 0
M  V30 22 H 0.5654 -1.2807 -0.1016 0
M  V30 23 H 0.7826 1.3263 1.9997 0
M  V30 24 H -1.7286 1.7681 0.2975 0
M  V30 25 H -1.6287 -0.6333 3.358 0
M  V30 26 H -0.2171 3.5109 0.9213 0
M  V30 27 H -3.0905 1.5023 2.3125 0
M  V30 28 H -2.4203 -2.0892 1.5218 0
M  V30 29 H -3.706 -0.9486 1.9668 0
M  V30 30 H -1.4172 2.7827 3.4338 0
M  V30 31 H 2.8691 -4.8233 -2.8869 0
M  V30 32 H 2.4943 -4.1476 -4.4807 0
M  V30 33 H 1.1969 -4.8064 -3.4708 0
M  V30 34 H -1.9562 -0.9128 -0.2497 0
M  V30 END ATOM
M  V30 BEGIN BOND
M  V30 1 2 1 2
M  V30 2 1 2 3
M  V30 3 1 2 4
M  V30 4 1 3 5
M  V30 5 1 3 6
M  V30 6 1 4 7
M  V30 7 2 5 8
M  V30 8 1 6 9
M  V30 9 1 6 10
M  V30 10 2 7 11
M  V30 11 1 8 12
M  V30 12 1 9 13
M  V30 13 1 10 14
M  V30 14 1 10 15
M  V30 15 3 12 16
M  V30 16 1 13 17
M  V30 17 1 15 18
M  V30 18 1 16 19
M  V30 19 1 17 20
M  V30 20 1 7 8
M  V30 21 1 13 15
M  V30 22 1 4 21
M  V30 23 1 5 22
M  V30 24 1 6 23
M  V30 25 1 10 24
M  V30 26 1 13 25
M  V30 27 1 14 26
M  V30 28 1 15 27
M  V30 29 1 17 28
M  V30 30 1 17 29
M  V30 31 1 18 30
M  V30 32 1 19 31
M  V30 33 1 19 32
M  V30 34 1 19 33
M  V30 35 1 20 34
M  V30 END BOND
M  V30 BEGIN COLLECTION
M  V30 MDLV30/STEABS ATOMS=(4 6 10 13 15)
M  V30 END COLLECTION
M  V30 END CTAB
M  END
>  <level_0>
6872

>  <index>
6872

>  <NO.>
6873

>  <Name>
5-(1-propynyl)uridine

>  <SMILES>
CC#Cc1cn([C@@H]2O[C@H](CO)[C@@H](O)[C@H]2O)c(=O)[nH]c1=O

>  <logBB>


>  <Class>
-1

>  <MW>
282.09

>  <nHBAcc>
6

>  <nHBDon>
4

>  <SLogP>
-2.48

>  <TopoPSA>
124.78

>  <MMFF94 Energy>
0.87539

$$$$
CC(=CCO)/C=C/C=C(C)\C=C\C1=C(C)CCCC1(C)C
Actelion Java MolfileCreator 2.0

  0  0  0  0  0  0              0 V3000
M  V30 BEGIN CTAB
M  V30 COUNTS 51 51 0 0 0
M  V30 BEGIN ATOM
M  V30 1 O -0.2333 6.4731 -4.9884 0
M  V30 2 C 0.5315 6.2315 -3.817 0
M  V30 3 C 0.8799 4.7787 -3.7809 0
M  V30 4 C 0.5562 3.8531 -2.8533 0
M  V30 5 C 1.0323 2.4809 -3.0461 0
M  V30 6 C -0.271 4.1424 -1.6261 0
M  V30 7 C 0.8136 1.4355 -2.2293 0
M  V30 8 C 1.3294 0.107 -2.5069 0
M  V30 9 C 1.1825 -1.0195 -1.7759 0
M  V30 10 C 0.4405 -1.0884 -0.5184 0
M  V30 11 C 1.8193 -2.2958 -2.2782 0
M  V30 12 C 0.2631 -2.1819 0.2438 0
M  V30 13 C -0.4799 -2.166 1.502 0
M  V30 14 C -1.8215 -1.9712 1.532 0
M  V30 15 C 0.3625 -2.3739 2.7794 0
M  V30 16 C -2.6018 -1.8774 2.8253 0
M  V30 17 C -2.7021 -1.8451 0.3103 0
M  V30 18 C -0.5423 -2.6506 4.0105 0
M  V30 19 C 1.3232 -3.5799 2.6598 0
M  V30 20 C 1.2079 -1.107 3.0431 0
M  V30 21 C -1.7388 -1.714 4.0697 0
M  V30 22 H -0.9853 5.8564 -4.9622 0
M  V30 23 H 1.4458 6.8299 -3.8771 0
M  V30 24 H -0.0391 6.5833 -2.9566 0
M  V30 25 H 1.4852 4.4778 -4.6363 0
M  V30 26 H 1.6216 2.3118 -3.9477 0
M  V30 27 H -0.604 5.1799 -1.5583 0
M  V30 28 H 0.305 3.936 -0.7172 0
M  V30 29 H -1.1756 3.5238 -1.618 0
M  V30 30 H 0.2331 1.5697 -1.3243 0
M  V30 31 H 1.9059 0.0362 -3.4302 0
M  V30 32 H -0.0103 -0.1665 -0.1605 0
M  V30 33 H 1.0593 -3.065 -2.4545 0
M  V30 34 H 2.3524 -2.1509 -3.2246 0
M  V30 35 H 2.5499 -2.6751 -1.5552 0
M  V30 36 H 0.6951 -3.1404 -0.028 0
M  V30 37 H -3.2983 -1.0312 2.7776 0
M  V30 38 H -3.2099 -2.7857 2.9256 0
M  V30 39 H -3.5666 -2.5121 0.4017 0
M  V30 40 H -3.0689 -0.8176 0.2167 0
M  V30 41 H -2.2013 -2.1145 -0.6228 0
M  V30 42 H -0.9122 -3.685 3.9787 0
M  V30 43 H 0.0359 -2.5608 4.9389 0
M  V30 44 H 1.8338 -3.7702 3.6115 0
M  V30 45 H 0.7822 -4.4928 2.3845 0
M  V30 46 H 2.1035 -3.4125 1.909 0
M  V30 47 H 1.7487 -1.1844 3.9934 0
M  V30 48 H 1.9575 -0.9517 2.2585 0
M  V30 49 H 0.5888 -0.2041 3.085 0
M  V30 50 H -1.4062 -0.6736 4.1617 0
M  V30 51 H -2.3388 -1.9289 4.9617 0
M  V30 END ATOM
M  V30 BEGIN BOND
M  V30 1 1 1 2
M  V30 2 1 2 3
M  V30 3 2 3 4
M  V30 4 1 4 5
M  V30 5 1 4 6
M  V30 6 2 5 7
M  V30 7 1 7 8
M  V30 8 2 8 9
M  V30 9 1 9 10
M  V30 10 1 9 11
M  V30 11 2 10 12
M  V30 12 1 12 13
M  V30 13 2 13 14
M  V30 14 1 13 15
M  V30 15 1 14 16
M  V30 16 1 14 17
M  V30 17 1 15 18
M  V30 18 1 15 19
M  V30 19 1 15 20
M  V30 20 1 16 21
M  V30 21 1 18 21
M  V30 22 1 1 22
M  V30 23 1 2 23
M  V30 24 1 2 24
M  V30 25 1 3 25
M  V30 26 1 5 26
M  V30 27 1 6 27
M  V30 28 1 6 28
M  V30 29 1 6 29
M  V30 30 1 7 30
M  V30 31 1 8 31
M  V30 32 1 10 32
M  V30 33 1 11 33
M  V30 34 1 11 34
M  V30 35 1 11 35
M  V30 36 1 12 36
M  V30 37 1 16 37
M  V30 38 1 16 38
M  V30 39 1 17 39
M  V30 40 1 17 40
M  V30 41 1 17 41
M  V30 42 1 18 42
M  V30 43 1 18 43
M  V30 44 1 19 44
M  V30 45 1 19 45
M  V30 46 1 19 46
M  V30 47 1 20 47
M  V30 48 1 20 48
M  V30 49 1 20 49
M  V30 50 1 21 50
M  V30 51 1 21 51
M  V30 END BOND
M  V30 END CTAB
M  END
>  <level_0>
6875

>  <index>
6875

>  <NO.>
6876

>  <Name>


>  <SMILES>
CC(=CCO)/C=C/C=C(C)\C=C\C1=C(C)CCCC1(C)C

>  <logBB>


>  <Class>
1

>  <MW>
286.23

>  <nHBAcc>
1

>  <nHBDon>
1

>  <SLogP>
5.51

>  <TopoPSA>
20.23

>  <MMFF94 Energy>
33.359

$$$$
CC(=O)NC[C@@H]1O[C@@H](O[C@H]2[C@@H](N)C[C@H](N)[C@H](O[C@@H]3O[C@@H](CO)[C@@H](O)[C@H](N)[C@@H]3O)[C@@H]2O)[C@@H](O)[C@@H](O)[C@@H]1O
Actelion Java MolfileCreator 2.0

  0  0  0  0  0  0              0 V3000
M  V30 BEGIN CTAB
M  V30 COUNTS 74 76 0 0 0
M  V30 BEGIN ATOM
M  V30 1 O 2.861 1.3502 4.2939 0
M  V30 2 C 2.5748 0.4093 5.0247 0
M  V30 3 N 2.7658 -0.9131 4.6986 0
M  V30 4 C 1.9482 0.6032 6.3788 0
M  V30 5 C 3.3222 -1.3367 3.4238 0
M  V30 6 C 2.3221 -2.0884 2.5227 0 CFG=2
M  V30 7 O 1.2154 -1.2221 2.2163 0
M  V30 8 C 1.7772 -3.377 3.1683 0 CFG=1
M  V30 9 C 0.3576 -1.7715 1.2138 0 CFG=1
M  V30 10 O 1.0695 -3.0733 4.3801 0
M  V30 11 C 0.8213 -4.0926 2.2032 0 CFG=1
M  V30 12 O 1.0631 -1.9311 -0.0196 0
M  V30 13 C -0.2394 -3.1268 1.6486 0 CFG=2
M  V30 14 O 1.5426 -4.6865 1.1123 0
M  V30 15 C 0.7781 -0.8852 -0.9698 0 CFG=2
M  V30 16 O -0.9223 -3.7442 0.5407 0
M  V30 17 C -0.3679 -1.3197 -1.9105 0 CFG=1
M  V30 18 C 2.0722 -0.6166 -1.778 0 CFG=1
M  V30 19 O -1.5861 -1.5498 -1.1712 0
M  V30 20 C -0.6279 -0.2404 -2.9808 0 CFG=1
M  V30 21 N 2.6113 -1.8649 -2.3514 0
M  V30 22 C 1.8336 0.4079 -2.894 0
M  V30 23 O -0.9911 0.9721 -2.2922 0
M  V30 24 C 0.6571 0.0148 -3.8079 0 CFG=2
M  V30 25 C -2.1161 1.6549 -2.8455 0 CFG=2
M  V30 26 N 0.4438 1.0689 -4.8164 0
M  V30 27 O -1.8392 3.0638 -2.8402 0
M  V30 28 C -3.4323 1.3291 -2.0951 0 CFG=1
M  V30 29 C -1.7382 3.5871 -1.4994 0 CFG=2
M  V30 30 O -3.7008 -0.0794 -2.033 0
M  V30 31 C -3.4924 1.9491 -0.6774 0 CFG=2
M  V30 32 C -3.0823 3.4324 -0.7531 0 CFG=2
M  V30 33 C -1.3158 5.0543 -1.6314 0
M  V30 34 N -2.6949 1.2104 0.3286 0
M  V30 35 O -4.1443 4.1474 -1.404 0
M  V30 36 O -2.2687 5.776 -2.4175 0
M  V30 37 H 2.4999 -1.6341 5.3615 0
M  V30 38 H 2.4084 -0.064 7.1131 0
M  V30 39 H 0.8775 0.3911 6.3157 0
M  V30 40 H 2.0943 1.6362 6.7066 0
M  V30 41 H 3.6972 -0.4583 2.8876 0
M  V30 42 H 4.1759 -1.9836 3.6522 0
M  V30 43 H 2.8583 -2.3336 1.5972 0
M  V30 44 H 2.6103 -4.0403 3.4261 0
M  V30 45 H -0.4784 -1.0736 1.0913 0
M  V30 46 H 0.6501 -2.1984 4.2426 0
M  V30 47 H 0.2997 -4.9114 2.714 0
M  V30 48 H -0.9763 -2.9362 2.4382 0
M  V30 49 H 1.9943 -5.4765 1.4623 0
M  V30 50 H 0.5152 0.034 -0.4295 0
M  V30 51 H -0.1973 -4.1847 0.0432 0
M  V30 52 H -0.1267 -2.2724 -2.3972 0
M  V30 53 H 2.8332 -0.2328 -1.0871 0
M  V30 54 H -1.4618 -2.3997 -0.693 0
M  V30 55 H -1.4475 -0.5796 -3.6274 0
M  V30 56 H 2.6403 -2.558 -1.597 0
M  V30 57 H 3.5794 -1.7153 -2.6348 0
M  V30 58 H 1.6404 1.3866 -2.4336 0
M  V30 59 H 2.7477 0.529 -3.4905 0
M  V30 60 H 0.9108 -0.9045 -4.3489 0
M  V30 61 H -2.2394 1.3781 -3.8986 0
M  V30 62 H 0.1669 1.928 -4.3341 0
M  V30 63 H 1.3262 1.281 -5.2802 0
M  V30 64 H -4.2534 1.7713 -2.6737 0
M  V30 65 H -0.9409 3.0602 -0.961 0
M  V30 66 H -2.8965 -0.4996 -1.6528 0
M  V30 67 H -4.5368 1.878 -0.345 0
M  V30 68 H -2.9986 3.8524 0.2563 0
M  V30 69 H -0.3484 5.1341 -2.1381 0
M  V30 70 H -1.2403 5.536 -0.652 0
M  V30 71 H -2.9907 1.5062 1.2589 0
M  V30 72 H -2.9512 0.2224 0.2619 0
M  V30 73 H -3.7848 5.0217 -1.6664 0
M  V30 74 H -2.3023 5.295 -3.2708 0
M  V30 END ATOM
M  V30 BEGIN BOND
M  V30 1 2 1 2
M  V30 2 1 2 3
M  V30 3 1 2 4
M  V30 4 1 3 5
M  V30 5 1 5 6
M  V30 6 1 6 7
M  V30 7 1 6 8
M  V30 8 1 7 9
M  V30 9 1 8 10
M  V30 10 1 8 11
M  V30 11 1 9 12
M  V30 12 1 9 13
M  V30 13 1 11 14
M  V30 14 1 12 15
M  V30 15 1 13 16
M  V30 16 1 15 17
M  V30 17 1 15 18
M  V30 18 1 17 19
M  V30 19 1 17 20
M  V30 20 1 18 21
M  V30 21 1 18 22
M  V30 22 1 20 23
M  V30 23 1 20 24
M  V30 24 1 23 25
M  V30 25 1 24 26
M  V30 26 1 25 27
M  V30 27 1 25 28
M  V30 28 1 27 29
M  V30 29 1 28 30
M  V30 30 1 28 31
M  V30 31 1 29 32
M  V30 32 1 29 33
M  V30 33 1 31 34
M  V30 34 1 32 35
M  V30 35 1 33 36
M  V30 36 1 11 13
M  V30 37 1 22 24
M  V30 38 1 31 32
M  V30 39 1 3 37
M  V30 40 1 4 38
M  V30 41 1 4 39
M  V30 42 1 4 40
M  V30 43 1 5 41
M  V30 44 1 5 42
M  V30 45 1 6 43
M  V30 46 1 8 44
M  V30 47 1 9 45
M  V30 48 1 10 46
M  V30 49 1 11 47
M  V30 50 1 13 48
M  V30 51 1 14 49
M  V30 52 1 15 50
M  V30 53 1 16 51
M  V30 54 1 17 52
M  V30 55 1 18 53
M  V30 56 1 19 54
M  V30 57 1 20 55
M  V30 58 1 21 56
M  V30 59 1 21 57
M  V30 60 1 22 58
M  V30 61 1 22 59
M  V30 62 1 24 60
M  V30 63 1 25 61
M  V30 64 1 26 62
M  V30 65 1 26 63
M  V30 66 1 28 64
M  V30 67 1 29 65
M  V30 68 1 30 66
M  V30 69 1 31 67
M  V30 70 1 32 68
M  V30 71 1 33 69
M  V30 72 1 33 70
M  V30 73 1 34 71
M  V30 74 1 34 72
M  V30 75 1 35 73
M  V30 76 1 36 74
M  V30 END BOND
M  V30 BEGIN COLLECTION
M  V30 MDLV30/STEABS ATOMS=(15 6 8 9 11 13 15 17 18 20 24 25 28 29 31 32)
M  V30 END COLLECTION
M  V30 END CTAB
M  END
>  <level_0>
6882

>  <index>
6882

>  <NO.>
6883

>  <Name>


>  <SMILES>
CC(=O)NC[C@@H]1O[C@@H](O[C@H]2[C@@H](N)C[C@H](N)[C@H](O[C@@H]3O[C@@H](CO)[C@@H](O)[C@H](N)[C@@H]3O)[C@@H]2O)[C@@H](O)[C@@H](O)[C@@H]1O

>  <logBB>


>  <Class>
-1

>  <MW>
526.25

>  <nHBAcc>
15

>  <nHBDon>
11

>  <SLogP>
-7.11

>  <TopoPSA>
285.69

>  <MMFF94 Energy>
250.31

$$$$
CC(C)CCC[C@H](C)[C@@H]1CC[C@@H]2[C@@H]3CC=C4C[C@@H](O)CC[C@]4(C)[C@@H]3CC[C@]12C
Actelion Java MolfileCreator 2.0

  0  0  0  0  0  0              0 V3000
M  V30 BEGIN CTAB
M  V30 COUNTS 74 77 0 0 0
M  V30 BEGIN ATOM
M  V30 1 O -1.8263 -2.4621 -7.4803 0
M  V30 2 C -1.6807 -2.2175 -6.0827 0 CFG=2
M  V30 3 C -0.3305 -1.5537 -5.8045 0
M  V30 4 C -1.7977 -3.5494 -5.3474 0
M  V30 5 C -0.0403 -1.4089 -4.3272 0
M  V30 6 C -1.607 -3.358 -3.8427 0
M  V30 7 C 0.4472 -0.2548 -3.8327 0
M  V30 8 C -0.2776 -2.6427 -3.4513 0 CFG=2
M  V30 9 C 0.8615 -0.0358 -2.4042 0
M  V30 10 C -0.2893 -2.25 -1.9199 0 CFG=1
M  V30 11 C 0.8917 -3.6328 -3.7042 0
M  V30 12 C 0.8968 -1.3279 -1.5682 0 CFG=2
M  V30 13 C -1.6192 -1.6248 -1.4333 0
M  V30 14 C 0.9839 -1.1477 -0.038 0 CFG=2
M  V30 15 C -1.5209 -0.6562 -0.2463 0
M  V30 16 C -0.362 -0.9118 0.7279 0 CFG=2
M  V30 17 C 1.9388 -0.057 0.44 0
M  V30 18 C -0.0352 0.2381 1.782 0 CFG=1
M  V30 19 C -0.7095 -2.1914 1.538 0
M  V30 20 C 1.5038 0.1486 1.8768 0
M  V30 21 C -0.5591 1.682 1.4665 0 CFG=2
M  V30 22 C 0.1798 2.8282 2.21 0
M  V30 23 C -2.0633 1.8172 1.7714 0
M  V30 24 C 0.1411 2.7441 3.7419 0
M  V30 25 C 0.9605 3.8757 4.3732 0
M  V30 26 C 0.861 3.9224 5.9094 0
M  V30 27 C 1.4379 2.6699 6.5711 0
M  V30 28 C 1.5833 5.1643 6.4381 0
M  V30 29 H -1.7882 -1.6013 -7.9314 0
M  V30 30 H -2.4981 -1.5543 -5.7736 0
M  V30 31 H 0.4691 -2.1437 -6.2713 0
M  V30 32 H -0.3028 -0.5818 -6.3139 0
M  V30 33 H -2.7839 -3.9894 -5.5418 0
M  V30 34 H -1.0769 -4.2716 -5.7481 0
M  V30 35 H -2.4767 -2.7893 -3.4978 0
M  V30 36 H -1.666 -4.3335 -3.3437 0
M  V30 37 H 0.5993 0.5951 -4.4953 0
M  V30 38 H 1.866 0.4054 -2.4118 0
M  V30 39 H 0.1997 0.7175 -1.9688 0
M  V30 40 H -0.1612 -3.1828 -1.3517 0
M  V30 41 H 0.8095 -4.5091 -3.051 0
M  V30 42 H 0.9099 -3.9998 -4.7356 0
M  V30 43 H 1.8703 -3.1759 -3.5252 0
M  V30 44 H 1.8277 -1.8395 -1.8477 0
M  V30 45 H -2.3028 -2.4404 -1.1632 0
M  V30 46 H -2.112 -1.0758 -2.2452 0
M  V30 47 H 1.4055 -2.0946 0.3357 0
M  V30 48 H -2.479 -0.6899 0.286 0
M  V30 49 H -1.45 0.3499 -0.6668 0
M  V30 50 H 1.8258 0.8773 -0.1178 0
M  V30 51 H 2.9846 -0.3717 0.3701 0
M  V30 52 H -0.4423 -0.0358 2.7647 0
M  V30 53 H 0.0806 -2.4432 2.2542 0
M  V30 54 H -1.635 -2.05 2.1083 0
M  V30 55 H -0.8501 -3.0621 0.8902 0
M  V30 56 H 2.0001 1.0034 2.336 0
M  V30 57 H 1.7863 -0.7252 2.4785 0
M  V30 58 H -0.4095 1.8869 0.3997 0
M  V30 59 H 1.2179 2.8836 1.8629 0
M  V30 60 H -0.2653 3.785 1.9036 0
M  V30 61 H -2.6863 1.2572 1.0752 0
M  V30 62 H -2.3859 2.8618 1.6934 0
M  V30 63 H -2.3012 1.4674 2.7813 0
M  V30 64 H 0.5329 1.7781 4.0721 0
M  V30 65 H -0.894 2.8135 4.0936 0
M  V30 66 H 2.0113 3.7749 4.0728 0
M  V30 67 H 0.6081 4.833 3.9675 0
M  V30 68 H -0.1963 4.0038 6.1915 0
M  V30 69 H 0.8564 1.7794 6.3145 0
M  V30 70 H 2.4757 2.5011 6.2645 0
M  V30 71 H 1.4192 2.7639 7.6624 0
M  V30 72 H 1.1557 6.0763 6.0081 0
M  V30 73 H 2.6499 5.1396 6.1901 0
M  V30 74 H 1.4898 5.2353 7.5271 0
M  V30 END ATOM
M  V30 BEGIN BOND
M  V30 1 1 1 2
M  V30 2 1 2 3
M  V30 3 1 2 4
M  V30 4 1 3 5
M  V30 5 1 4 6
M  V30 6 2 5 7
M  V30 7 1 5 8
M  V30 8 1 7 9
M  V30 9 1 8 10
M  V30 10 1 8 11
M  V30 11 1 9 12
M  V30 12 1 10 13
M  V30 13 1 12 14
M  V30 14 1 13 15
M  V30 15 1 14 16
M  V30 16 1 14 17
M  V30 17 1 16 18
M  V30 18 1 16 19
M  V30 19 1 17 20
M  V30 20 1 18 21
M  V30 21 1 21 22
M  V30 22 1 21 23
M  V30 23 1 22 24
M  V30 24 1 24 25
M  V30 25 1 25 26
M  V30 26 1 26 27
M  V30 27 1 26 28
M  V30 28 1 6 8
M  V30 29 1 10 12
M  V30 30 1 15 16
M  V30 31 1 18 20
M  V30 32 1 1 29
M  V30 33 1 2 30
M  V30 34 1 3 31
M  V30 35 1 3 32
M  V30 36 1 4 33
M  V30 37 1 4 34
M  V30 38 1 6 35
M  V30 39 1 6 36
M  V30 40 1 7 37
M  V30 41 1 9 38
M  V30 42 1 9 39
M  V30 43 1 10 40
M  V30 44 1 11 41
M  V30 45 1 11 42
M  V30 46 1 11 43
M  V30 47 1 12 44
M  V30 48 1 13 45
M  V30 49 1 13 46
M  V30 50 1 14 47
M  V30 51 1 15 48
M  V30 52 1 15 49
M  V30 53 1 17 50
M  V30 54 1 17 51
M  V30 55 1 18 52
M  V30 56 1 19 53
M  V30 57 1 19 54
M  V30 58 1 19 55
M  V30 59 1 20 56
M  V30 60 1 20 57
M  V30 61 1 21 58
M  V30 62 1 22 59
M  V30 63 1 22 60
M  V30 64 1 23 61
M  V30 65 1 23 62
M  V30 66 1 23 63
M  V30 67 1 24 64
M  V30 68 1 24 65
M  V30 69 1 25 66
M  V30 70 1 25 67
M  V30 71 1 26 68
M  V30 72 1 27 69
M  V30 73 1 27 70
M  V30 74 1 27 71
M  V30 75 1 28 72
M  V30 76 1 28 73
M  V30 77 1 28 74
M  V30 END BOND
M  V30 BEGIN COLLECTION
M  V30 MDLV30/STEABS ATOMS=(8 2 8 10 12 14 16 18 21)
M  V30 END COLLECTION
M  V30 END CTAB
M  END
>  <level_0>
6975

>  <index>
6975

>  <NO.>
6976

>  <Name>
cholesterol-3-18o

>  <SMILES>
CC(C)CCC[C@H](C)[C@@H]1CC[C@@H]2[C@@H]3CC=C4C[C@@H](O)CC[C@]4(C)[C@@H]3CC[C@]12C

>  <logBB>


>  <Class>
1

>  <MW>
386.35

>  <nHBAcc>
1

>  <nHBDon>
1

>  <SLogP>
7.39

>  <TopoPSA>
20.23

>  <MMFF94 Energy>
106.5

$$$$
CCC(=O)O[C@@]1(CCN(C)CCCc2nc3ccccc3[nH]2)CCc2cc(F)ccc2[C@@H]1C(C)C
Actelion Java MolfileCreator 2.0

  0  0  0  0  0  0              0 V3000
M  V30 BEGIN CTAB
M  V30 COUNTS 73 76 0 0 0
M  V30 BEGIN ATOM
M  V30 1 F 5.8872 5.8872 -0.1587 0
M  V30 2 C 5.2356 4.7186 -0.096 0
M  V30 3 C 4.5939 4.231 -1.2275 0
M  V30 4 C 5.1958 4.0207 1.1005 0
M  V30 5 C 3.9021 3.01 -1.18 0
M  V30 6 C 4.5137 2.8066 1.1613 0
M  V30 7 C 3.8752 2.2799 0.0229 0
M  V30 8 C 3.1437 2.5732 -2.4058 0
M  V30 9 C 3.1738 0.9252 0.1075 0 CFG=1
M  V30 10 C 2.476 1.199 -2.3229 0
M  V30 11 C 1.9629 0.864 -0.9082 0 CFG=2
M  V30 12 C 4.188 -0.2771 0.0411 0
M  V30 13 O 0.9913 1.9234 -0.6079 0
M  V30 14 C 1.2428 -0.5159 -0.9216 0
M  V30 15 C 5.3907 -0.1005 -0.8949 0
M  V30 16 C 4.7171 -0.6368 1.4408 0
M  V30 17 C 0.3282 1.9597 0.5815 0
M  V30 18 C -0.0894 -0.5417 -1.6959 0
M  V30 19 O 0.4206 1.1321 1.4745 0
M  V30 20 C -0.5509 3.1865 0.6162 0
M  V30 21 N -0.747 -1.8615 -1.5834 0
M  V30 22 C -1.355 3.2751 1.9011 0
M  V30 23 C -1.5064 -1.953 -0.314 0
M  V30 24 C -1.6483 -2.0566 -2.7268 0
M  V30 25 C -1.7912 -3.4133 0.068 0
M  V30 26 C -2.4892 -3.5334 1.4248 0
M  V30 27 C -3.9022 -3.0606 1.374 0
M  V30 28 N -4.3258 -1.8285 1.5657 0
M  V30 29 N -4.9522 -3.9028 1.1002 0
M  V30 30 C -5.6891 -1.8763 1.4087 0
M  V30 31 C -6.1092 -3.1677 1.1133 0
M  V30 32 C -6.6404 -0.8507 1.5024 0
M  V30 33 C -7.446 -3.5097 0.9001 0
M  V30 34 C -7.9895 -1.1648 1.2934 0
M  V30 35 C -8.3819 -2.4729 0.9973 0
M  V30 36 H 4.6254 4.8187 -2.1405 0
M  V30 37 H 5.6916 4.4238 1.9771 0
M  V30 38 H 4.4788 2.2725 2.1083 0
M  V30 39 H 3.8131 2.5863 -3.2747 0
M  V30 40 H 2.3635 3.3234 -2.5919 0
M  V30 41 H 2.7258 0.8906 1.107 0
M  V30 42 H 1.6514 1.209 -3.0457 0
M  V30 43 H 3.164 0.4234 -2.6711 0
M  V30 44 H 3.6557 -1.1722 -0.2902 0
M  V30 45 H 1.8967 -1.2728 -1.3712 0
M  V30 46 H 1.0778 -0.8345 0.1126 0
M  V30 47 H 5.094 0.1239 -1.9197 0
M  V30 48 H 5.9781 -1.0254 -0.9304 0
M  V30 49 H 6.064 0.6914 -0.5515 0
M  V30 50 H 5.2947 -1.5673 1.4029 0
M  V30 51 H 3.8931 -0.7933 2.1447 0
M  V30 52 H 5.3747 0.1384 1.8432 0
M  V30 53 H -0.7707 0.2544 -1.3748 0
M  V30 54 H 0.1435 -0.3482 -2.7493 0
M  V30 55 H -1.2362 3.1462 -0.237 0
M  V30 56 H 0.0866 4.0719 0.5236 0
M  V30 57 H -1.9834 4.171 1.8968 0
M  V30 58 H -0.6965 3.3229 2.7746 0
M  V30 59 H -2.0047 2.4014 2.0192 0
M  V30 60 H -2.4336 -1.3708 -0.3808 0
M  V30 61 H -0.9274 -1.5149 0.5068 0
M  V30 62 H -2.1223 -3.0422 -2.7003 0
M  V30 63 H -2.4347 -1.2941 -2.7683 0
M  V30 64 H -1.0856 -2.0202 -3.6667 0
M  V30 65 H -0.8384 -3.9553 0.1228 0
M  V30 66 H -2.397 -3.9092 -0.6986 0
M  V30 67 H -2.4707 -4.583 1.7429 0
M  V30 68 H -1.9408 -2.967 2.1867 0
M  V30 69 H -4.8824 -4.8927 0.9169 0
M  V30 70 H -6.3272 0.1608 1.7337 0
M  V30 71 H -7.752 -4.5244 0.6716 0
M  V30 72 H -8.7378 -0.3791 1.3642 0
M  V30 73 H -9.4365 -2.6903 0.8403 0
M  V30 END ATOM
M  V30 BEGIN BOND
M  V30 1 1 1 2
M  V30 2 2 2 3
M  V30 3 1 2 4
M  V30 4 1 3 5
M  V30 5 2 4 6
M  V30 6 2 5 7
M  V30 7 1 5 8
M  V30 8 1 7 9
M  V30 9 1 8 10
M  V30 10 1 9 11
M  V30 11 1 9 12
M  V30 12 1 11 13
M  V30 13 1 11 14
M  V30 14 1 12 15
M  V30 15 1 12 16
M  V30 16 1 13 17
M  V30 17 1 14 18
M  V30 18 2 17 19
M  V30 19 1 17 20
M  V30 20 1 18 21
M  V30 21 1 20 22
M  V30 22 1 21 23
M  V30 23 1 21 24
M  V30 24 1 23 25
M  V30 25 1 25 26
M  V30 26 1 26 27
M  V30 27 2 27 28
M  V30 28 1 27 29
M  V30 29 1 28 30
M  V30 30 1 29 31
M  V30 31 1 30 32
M  V30 32 1 31 33
M  V30 33 2 32 34
M  V30 34 2 33 35
M  V30 35 1 6 7
M  V30 36 1 10 11
M  V30 37 2 30 31
M  V30 38 1 34 35
M  V30 39 1 3 36
M  V30 40 1 4 37
M  V30 41 1 6 38
M  V30 42 1 8 39
M  V30 43 1 8 40
M  V30 44 1 9 41
M  V30 45 1 10 42
M  V30 46 1 10 43
M  V30 47 1 12 44
M  V30 48 1 14 45
M  V30 49 1 14 46
M  V30 50 1 15 47
M  V30 51 1 15 48
M  V30 52 1 15 49
M  V30 53 1 16 50
M  V30 54 1 16 51
M  V30 55 1 16 52
M  V30 56 1 18 53
M  V30 57 1 18 54
M  V30 58 1 20 55
M  V30 59 1 20 56
M  V30 60 1 22 57
M  V30 61 1 22 58
M  V30 62 1 22 59
M  V30 63 1 23 60
M  V30 64 1 23 61
M  V30 65 1 24 62
M  V30 66 1 24 63
M  V30 67 1 24 64
M  V30 68 1 25 65
M  V30 69 1 25 66
M  V30 70 1 26 67
M  V30 71 1 26 68
M  V30 72 1 29 69
M  V30 73 1 32 70
M  V30 74 1 33 71
M  V30 75 1 34 72
M  V30 76 1 35 73
M  V30 END BOND
M  V30 BEGIN COLLECTION
M  V30 MDLV30/STEABS ATOMS=(2 9 11)
M  V30 END COLLECTION
M  V30 END CTAB
M  END
>  <level_0>
7063

>  <index>
7063

>  <NO.>
7064

>  <Name>


>  <SMILES>
CCC(=O)O[C@@]1(CCN(C)CCCc2nc3ccccc3[nH]2)CCc2cc(F)ccc2[C@@H]1C(C)C

>  <logBB>


>  <Class>
1

>  <MW>
479.29

>  <nHBAcc>
4

>  <nHBDon>
1

>  <SLogP>
6.03

>  <TopoPSA>
58.22

>  <MMFF94 Energy>
55.459

$$$$
CCCCCC(=O)O[C@]1(C(C)=O)CC[C@@H]2[C@@H]3C=CC4=CC(=O)CC[C@]4(C)[C@@H]3CC[C@@]21C
Actelion Java MolfileCreator 2.0

  0  0  0  0  0  0              0 V3000
M  V30 BEGIN CTAB
M  V30 COUNTS 69 72 0 0 0
M  V30 BEGIN ATOM
M  V30 1 O 5.3726 -2.1624 1.6815 0
M  V30 2 C 4.1528 -2.3152 1.6999 0
M  V30 3 C 3.2782 -1.1186 1.703 0
M  V30 4 C 3.5222 -3.6844 1.7842 0
M  V30 5 C 1.9397 -1.222 1.7372 0
M  V30 6 C 2.1204 -3.6942 1.1834 0
M  V30 7 C 1.1152 -0.0216 1.7619 0
M  V30 8 C 1.2079 -2.5648 1.7414 0 CFG=2
M  V30 9 C -0.2234 -0.0447 1.6536 0
M  V30 10 C -0.1101 -2.4357 0.8867 0 CFG=1
M  V30 11 C 0.8565 -2.9297 3.2107 0
M  V30 12 C -1.0277 -1.3118 1.4497 0 CFG=2
M  V30 13 C 0.1593 -2.2486 -0.6377 0
M  V30 14 C -2.3086 -1.2212 0.5831 0 CFG=2
M  V30 15 C -0.5919 -1.1008 -1.3178 0
M  V30 16 C -2.0846 -1.0189 -0.9487 0 CFG=2
M  V30 17 C -3.3318 -0.1621 1.0288 0
M  V30 18 C -2.73 0.3918 -1.2408 0 CFG=1
M  V30 19 C -2.8287 -2.162 -1.693 0
M  V30 20 C -3.9187 0.4009 -0.2601 0
M  V30 21 O -1.7918 1.4048 -0.8095 0
M  V30 22 C -3.1877 0.5346 -2.7157 0
M  V30 23 C -2.0809 2.7166 -1.0088 0
M  V30 24 O -4.3544 0.3315 -3.063 0
M  V30 25 C -2.1325 0.8085 -3.7593 0
M  V30 26 O -3.0638 3.1394 -1.5966 0
M  V30 27 C -1.0322 3.592 -0.3696 0
M  V30 28 C 0.3663 3.2922 -0.9018 0
M  V30 29 C 1.4142 4.196 -0.2526 0
M  V30 30 C 2.8178 3.8726 -0.7638 0
M  V30 31 C 3.8651 4.7652 -0.1178 0
M  V30 32 H 3.7986 -0.1674 1.6905 0
M  V30 33 H 4.1514 -4.3873 1.2264 0
M  V30 34 H 3.5173 -4.0006 2.8316 0
M  V30 35 H 2.2397 -3.6101 0.0984 0
M  V30 36 H 1.6568 -4.6737 1.3565 0
M  V30 37 H 1.6149 0.9374 1.8882 0
M  V30 38 H -0.7532 0.899 1.7351 0
M  V30 39 H -0.658 -3.3844 0.9902 0
M  V30 40 H 0.2692 -3.854 3.2508 0
M  V30 41 H 1.7527 -3.0817 3.8215 0
M  V30 42 H 0.2816 -2.1492 3.7189 0
M  V30 43 H -1.382 -1.6035 2.4474 0
M  V30 44 H -0.0847 -3.1904 -1.1453 0
M  V30 45 H 1.2215 -2.0763 -0.8409 0
M  V30 46 H -2.8124 -2.1898 0.7251 0
M  V30 47 H -0.4735 -1.2027 -2.4033 0
M  V30 48 H -0.0702 -0.1716 -1.0682 0
M  V30 49 H -4.1139 -0.6018 1.6573 0
M  V30 50 H -2.8784 0.6443 1.6111 0
M  V30 51 H -3.9061 -2.1468 -1.4998 0
M  V30 52 H -2.4624 -3.1454 -1.3774 0
M  V30 53 H -2.6824 -2.1006 -2.7763 0
M  V30 54 H -4.7437 -0.2327 -0.6041 0
M  V30 55 H -4.3286 1.4005 -0.0853 0
M  V30 56 H -2.5732 1.3978 -4.5683 0
M  V30 57 H -1.2992 1.3778 -3.3442 0
M  V30 58 H -1.7616 -0.1379 -4.1579 0
M  V30 59 H -1.0849 3.451 0.7157 0
M  V30 60 H -1.2934 4.6365 -0.576 0
M  V30 61 H 0.3807 3.4239 -1.9908 0
M  V30 62 H 0.6257 2.2444 -0.7112 0
M  V30 63 H 1.3832 4.0701 0.8365 0
M  V30 64 H 1.1771 5.2457 -0.4641 0
M  V30 65 H 3.059 2.8245 -0.5515 0
M  V30 66 H 2.8567 4.0009 -1.8517 0
M  V30 67 H 4.861 4.517 -0.4977 0
M  V30 68 H 3.671 5.82 -0.3371 0
M  V30 69 H 3.8742 4.636 0.9691 0
M  V30 END ATOM
M  V30 BEGIN BOND
M  V30 1 2 1 2
M  V30 2 1 2 3
M  V30 3 1 2 4
M  V30 4 2 3 5
M  V30 5 1 4 6
M  V30 6 1 5 7
M  V30 7 1 5 8
M  V30 8 2 7 9
M  V30 9 1 8 10
M  V30 10 1 8 11
M  V30 11 1 9 12
M  V30 12 1 10 13
M  V30 13 1 12 14
M  V30 14 1 13 15
M  V30 15 1 14 16
M  V30 16 1 14 17
M  V30 17 1 16 18
M  V30 18 1 16 19
M  V30 19 1 17 20
M  V30 20 1 18 21
M  V30 21 1 18 22
M  V30 22 1 21 23
M  V30 23 2 22 24
M  V30 24 1 22 25
M  V30 25 2 23 26
M  V30 26 1 23 27
M  V30 27 1 27 28
M  V30 28 1 28 29
M  V30 29 1 29 30
M  V30 30 1 30 31
M  V30 31 1 6 8
M  V30 32 1 10 12
M  V30 33 1 15 16
M  V30 34 1 18 20
M  V30 35 1 3 32
M  V30 36 1 4 33
M  V30 37 1 4 34
M  V30 38 1 6 35
M  V30 39 1 6 36
M  V30 40 1 7 37
M  V30 41 1 9 38
M  V30 42 1 10 39
M  V30 43 1 11 40
M  V30 44 1 11 41
M  V30 45 1 11 42
M  V30 46 1 12 43
M  V30 47 1 13 44
M  V30 48 1 13 45
M  V30 49 1 14 46
M  V30 50 1 15 47
M  V30 51 1 15 48
M  V30 52 1 17 49
M  V30 53 1 17 50
M  V30 54 1 19 51
M  V30 55 1 19 52
M  V30 56 1 19 53
M  V30 57 1 20 54
M  V30 58 1 20 55
M  V30 59 1 25 56
M  V30 60 1 25 57
M  V30 61 1 25 58
M  V30 62 1 27 59
M  V30 63 1 27 60
M  V30 64 1 28 61
M  V30 65 1 28 62
M  V30 66 1 29 63
M  V30 67 1 29 64
M  V30 68 1 30 65
M  V30 69 1 30 66
M  V30 70 1 31 67
M  V30 71 1 31 68
M  V30 72 1 31 69
M  V30 END BOND
M  V30 BEGIN COLLECTION
M  V30 MDLV30/STEABS ATOMS=(6 8 10 12 14 16 18)
M  V30 END COLLECTION
M  V30 END CTAB
M  END
>  <level_0>
7090

>  <index>
7090

>  <NO.>
7091

>  <Name>


>  <SMILES>
CCCCCC(=O)O[C@]1(C(C)=O)CC[C@@H]2[C@@H]3C=CC4=CC(=O)CC[C@]4(C)[C@@H]3CC[C@@]21C

>  <logBB>


>  <Class>
1

>  <MW>
426.28

>  <nHBAcc>
4

>  <nHBDon>
0

>  <SLogP>
5.75

>  <TopoPSA>
60.44

>  <MMFF94 Energy>
78.448

$$$$
CCCc1nc2c(n1Cc1ccc(-c3ccccc3C(=O)O)cc1)=C[C@H](c1nc3ccccc3n1C)CC=2C
Actelion Java MolfileCreator 2.0

  0  0  0  0  0  0              0 V3000
M  V30 BEGIN CTAB
M  V30 COUNTS 71 76 0 0 0
M  V30 BEGIN ATOM
M  V30 1 O 5.7651 -0.2397 1.2789 0
M  V30 2 C 6.5308 -0.3352 0.3407 0
M  V30 3 O 7.8134 0.0625 0.4585 0
M  V30 4 C 6.2465 -0.8546 -1.0221 0
M  V30 5 C 4.9804 -0.693 -1.6226 0
M  V30 6 C 7.2645 -1.5557 -1.6952 0
M  V30 7 C 3.8757 0.0595 -1.0099 0
M  V30 8 C 4.7767 -1.2583 -2.8982 0
M  V30 9 C 7.0367 -2.1011 -2.9579 0
M  V30 10 C 2.7327 -0.6014 -0.5387 0
M  V30 11 C 3.9242 1.4578 -0.9111 0
M  V30 12 C 5.7916 -1.9545 -3.5582 0
M  V30 13 C 1.6701 0.1132 0.021 0
M  V30 14 C 2.8637 2.175 -0.3488 0
M  V30 15 C 1.7222 1.5105 0.1195 0
M  V30 16 C 0.5793 2.2831 0.74 0
M  V30 17 N -0.6462 2.1392 -0.0162 0
M  V30 18 C -1.7235 1.3458 0.298 0
M  V30 19 C -0.9418 2.7407 -1.231 0
M  V30 20 C -2.6311 1.4776 -0.8319 0
M  V30 21 C -2.0297 0.5945 1.3602 0
M  V30 22 N -2.1083 2.3847 -1.7338 0
M  V30 23 C -0.0173 3.6924 -1.951 0
M  V30 24 C -3.7403 0.74 -0.971 0
M  V30 25 C -3.3508 -0.145 1.4479 0 CFG=1
M  V30 26 C -0.7537 4.6284 -2.9059 0
M  V30 27 C -4.0853 -0.2946 0.0802 0
M  V30 28 C -4.6454 0.8202 -2.1613 0
M  V30 29 C -3.2386 -1.4973 2.1146 0
M  V30 30 C 0.1991 5.6133 -3.5637 0
M  V30 31 N -2.2451 -2.3497 1.9448 0
M  V30 32 N -4.1715 -2.0118 2.9935 0
M  V30 33 C -2.5355 -3.432 2.7326 0
M  V30 34 C -3.7386 -3.2504 3.4077 0
M  V30 35 C -5.388 -1.3582 3.413 0
M  V30 36 C -1.8055 -4.6147 2.9211 0
M  V30 37 C -4.259 -4.212 4.2841 0
M  V30 38 C -2.3096 -5.5878 3.7911 0
M  V30 39 C -3.517 -5.3862 4.4606 0
M  V30 40 H 7.8638 0.388 1.3817 0
M  V30 41 H 8.2397 -1.6883 -1.2315 0
M  V30 42 H 3.8116 -1.1453 -3.3916 0
M  V30 43 H 7.8289 -2.6424 -3.4688 0
M  V30 44 H 2.6633 -1.6857 -0.5978 0
M  V30 45 H 4.7942 2.0003 -1.2749 0
M  V30 46 H 5.6064 -2.3778 -4.5424 0
M  V30 47 H 0.7991 -0.4335 0.3788 0
M  V30 48 H 2.9398 3.2579 -0.2835 0
M  V30 49 H 0.8374 3.3454 0.8259 0
M  V30 50 H 0.4557 1.9394 1.7745 0
M  V30 51 H -1.3508 0.5088 2.2009 0
M  V30 52 H 0.7132 3.0911 -2.5036 0
M  V30 53 H 0.5278 4.287 -1.2115 0
M  V30 54 H -3.9781 0.4937 2.0857 0
M  V30 55 H -1.2625 4.0491 -3.6853 0
M  V30 56 H -1.5295 5.1816 -2.3631 0
M  V30 57 H -3.8821 -1.2834 -0.354 0
M  V30 58 H -5.1662 -0.2633 0.2714 0
M  V30 59 H -4.3145 1.5619 -2.8947 0
M  V30 60 H -5.6576 1.095 -1.8472 0
M  V30 61 H -4.6916 -0.1494 -2.6672 0
M  V30 62 H -0.3474 6.2712 -4.2465 0
M  V30 63 H 0.696 6.2385 -2.8151 0
M  V30 64 H 0.9684 5.0892 -4.1396 0
M  V30 65 H -5.1201 -0.5075 4.0446 0
M  V30 66 H -5.9332 -1.0251 2.5268 0
M  V30 67 H -6.0168 -2.051 3.9754 0
M  V30 68 H -0.8677 -4.7608 2.3972 0
M  V30 69 H -5.1954 -4.0671 4.8111 0
M  V30 70 H -1.7518 -6.5082 3.9448 0
M  V30 71 H -3.8894 -6.1564 5.1331 0
M  V30 END ATOM
M  V30 BEGIN BOND
M  V30 1 2 1 2
M  V30 2 1 2 3
M  V30 3 1 2 4
M  V30 4 2 4 5
M  V30 5 1 4 6
M  V30 6 1 5 7
M  V30 7 1 5 8
M  V30 8 2 6 9
M  V30 9 2 7 10
M  V30 10 1 7 11
M  V30 11 2 8 12
M  V30 12 1 10 13
M  V30 13 2 11 14
M  V30 14 2 13 15
M  V30 15 1 15 16
M  V30 16 1 16 17
M  V30 17 1 17 18
M  V30 18 1 17 19
M  V30 19 1 18 20
M  V30 20 2 18 21
M  V30 21 2 19 22
M  V30 22 1 19 23
M  V30 23 2 20 24
M  V30 24 1 21 25
M  V30 25 1 23 26
M  V30 26 1 24 27
M  V30 27 1 24 28
M  V30 28 1 25 29
M  V30 29 1 26 30
M  V30 30 2 29 31
M  V30 31 1 29 32
M  V30 32 1 31 33
M  V30 33 1 32 34
M  V30 34 1 32 35
M  V30 35 1 33 36
M  V30 36 1 34 37
M  V30 37 2 36 38
M  V30 38 2 37 39
M  V30 39 1 9 12
M  V30 40 1 14 15
M  V30 41 1 20 22
M  V30 42 1 25 27
M  V30 43 2 33 34
M  V30 44 1 38 39
M  V30 45 1 3 40
M  V30 46 1 6 41
M  V30 47 1 8 42
M  V30 48 1 9 43
M  V30 49 1 10 44
M  V30 50 1 11 45
M  V30 51 1 12 46
M  V30 52 1 13 47
M  V30 53 1 14 48
M  V30 54 1 16 49
M  V30 55 1 16 50
M  V30 56 1 21 51
M  V30 57 1 23 52
M  V30 58 1 23 53
M  V30 59 1 25 54
M  V30 60 1 26 55
M  V30 61 1 26 56
M  V30 62 1 27 57
M  V30 63 1 27 58
M  V30 64 1 28 59
M  V30 65 1 28 60
M  V30 66 1 28 61
M  V30 67 1 30 62
M  V30 68 1 30 63
M  V30 69 1 30 64
M  V30 70 1 35 65
M  V30 71 1 35 66
M  V30 72 1 35 67
M  V30 73 1 36 68
M  V30 74 1 37 69
M  V30 75 1 38 70
M  V30 76 1 39 71
M  V30 END BOND
M  V30 BEGIN COLLECTION
M  V30 MDLV30/STEABS ATOMS=(1 25)
M  V30 END COLLECTION
M  V30 END CTAB
M  END
>  <level_0>
7130

>  <index>
7130

>  <NO.>
7131

>  <Name>


>  <SMILES>
CCCc1nc2c(n1Cc1ccc(-c3ccccc3C(=O)O)cc1)=C[C@H](c1nc3ccccc3n1C)CC=2C

>  <logBB>


>  <Class>
1

>  <MW>
516.25

>  <nHBAcc>
3

>  <nHBDon>
1

>  <SLogP>
5.27

>  <TopoPSA>
72.94

>  <MMFF94 Energy>
79.159

$$$$
CCN[C@@H]1C[C@H](N)[C@H](O[C@@H]2C[C@@H](N)C=C(CN)O2)[C@H](O)[C@@H]1O[C@@H]1OC[C@@](C)(O)[C@@H](NC)[C@@H]1O
Actelion Java MolfileCreator 2.0

  0  0  0  0  0  0              0 V3000
M  V30 BEGIN CTAB
M  V30 COUNTS 74 76 0 0 0
M  V30 BEGIN ATOM
M  V30 1 O -0.2366 0.5522 3.9496 0
M  V30 2 C -0.36 1.8439 3.4648 0
M  V30 3 C -0.9241 -0.4642 3.2002 0 CFG=2
M  V30 4 C -1.2958 2.2025 2.5696 0
M  V30 5 C 0.6587 2.8086 4.0145 0
M  V30 6 O -0.2393 -0.7832 1.9893 0
M  V30 7 C -2.3519 -0.0326 2.877 0
M  V30 8 C -2.3135 1.2457 2.0427 0 CFG=1
M  V30 9 N 0.5682 2.8983 5.4712 0
M  V30 10 C 0.9955 -1.4902 2.1867 0 CFG=2
M  V30 11 N -3.6231 1.8975 2.0058 0
M  V30 12 C 2.0147 -0.9744 1.1412 0 CFG=2
M  V30 13 C 0.8094 -3.0203 2.022 0 CFG=1
M  V30 14 O 2.1097 0.4545 1.2543 0
M  V30 15 C 1.6619 -1.3524 -0.3231 0 CFG=2
M  V30 16 N -0.1641 -3.5943 2.9633 0
M  V30 17 C 0.4231 -3.3878 0.5785 0
M  V30 18 O 0.4837 -0.6092 -0.6816 0
M  V30 19 C 1.5104 -2.9024 -0.4031 0 CFG=1
M  V30 20 C 0.2339 -0.4837 -2.0817 0 CFG=2
M  V30 21 N 1.2347 -3.4521 -1.7423 0
M  V30 22 O 1.2895 0.2214 -2.7561 0
M  V30 23 C -1.1082 0.2457 -2.3275 0 CFG=1
M  V30 24 C 2.3906 -3.3821 -2.6362 0
M  V30 25 C 1.4715 1.5566 -2.2612 0
M  V30 26 O -2.2174 -0.398 -1.682 0
M  V30 27 C -1.0097 1.7129 -1.8502 0 CFG=1
M  V30 28 C 2.026 -3.976 -3.9885 0
M  V30 29 C 0.2141 2.4125 -2.514 0 CFG=2
M  V30 30 N -2.3485 2.3679 -1.9192 0
M  V30 31 O 0.0397 2.5117 -3.9393 0
M  V30 32 C 0.4258 3.8274 -1.9761 0
M  V30 33 C -2.7942 2.7218 -3.2608 0
M  V30 34 H -0.9786 -1.3451 3.8456 0
M  V30 35 H -1.3299 3.2209 2.1924 0
M  V30 36 H 1.6632 2.4704 3.7377 0
M  V30 37 H 0.5298 3.8104 3.5905 0
M  V30 38 H -2.8915 0.1407 3.8177 0
M  V30 39 H -2.8789 -0.8192 2.3242 0
M  V30 40 H -2.0398 0.997 1.0128 0
M  V30 41 H -0.3786 3.1858 5.713 0
M  V30 42 H 0.6652 1.9506 5.8369 0
M  V30 43 H 1.3919 -1.2623 3.185 0
M  V30 44 H -3.9768 1.9971 2.956 0
M  V30 45 H -4.2789 1.2785 1.5297 0
M  V30 46 H 3.004 -1.382 1.3812 0
M  V30 47 H 1.7735 -3.498 2.2419 0
M  V30 48 H 1.1777 0.7456 1.162 0
M  V30 49 H 2.4936 -1.012 -0.9505 0
M  V30 50 H 0.1903 -3.5197 3.9161 0
M  V30 51 H -0.2843 -4.5895 2.7771 0
M  V30 52 H 0.3242 -4.4793 0.5035 0
M  V30 53 H -0.5539 -2.962 0.3147 0
M  V30 54 H 2.4574 -3.3466 -0.064 0
M  V30 55 H 0.138 -1.4708 -2.5326 0
M  V30 56 H 0.9218 -4.4201 -1.669 0
M  V30 57 H -1.3127 0.2239 -3.4043 0
M  V30 58 H 3.2344 -3.941 -2.2162 0
M  V30 59 H 2.7093 -2.3462 -2.7865 0
M  V30 60 H 1.7456 1.5336 -1.202 0
M  V30 61 H 2.3233 1.9703 -2.8125 0
M  V30 62 H -2.8649 0.3264 -1.5531 0
M  V30 63 H -0.8034 1.6778 -0.7722 0
M  V30 64 H 1.7349 -5.0277 -3.8957 0
M  V30 65 H 1.1967 -3.4291 -4.4498 0
M  V30 66 H 2.8835 -3.9228 -4.6667 0
M  V30 67 H -2.3264 3.2197 -1.3552 0
M  V30 68 H 0.3392 1.6672 -4.3267 0
M  V30 69 H 0.5579 3.8294 -0.8892 0
M  V30 70 H 1.3108 4.2862 -2.4318 0
M  V30 71 H -0.4166 4.4808 -2.2257 0
M  V30 72 H -3.8336 3.0619 -3.2059 0
M  V30 73 H -2.7756 1.8692 -3.9446 0
M  V30 74 H -2.2133 3.5455 -3.6835 0
M  V30 END ATOM
M  V30 BEGIN BOND
M  V30 1 1 1 2
M  V30 2 1 1 3
M  V30 3 2 2 4
M  V30 4 1 2 5
M  V30 5 1 3 6
M  V30 6 1 3 7
M  V30 7 1 4 8
M  V30 8 1 5 9
M  V30 9 1 6 10
M  V30 10 1 8 11
M  V30 11 1 10 12
M  V30 12 1 10 13
M  V30 13 1 12 14
M  V30 14 1 12 15
M  V30 15 1 13 16
M  V30 16 1 13 17
M  V30 17 1 15 18
M  V30 18 1 15 19
M  V30 19 1 18 20
M  V30 20 1 19 21
M  V30 21 1 20 22
M  V30 22 1 20 23
M  V30 23 1 21 24
M  V30 24 1 22 25
M  V30 25 1 23 26
M  V30 26 1 23 27
M  V30 27 1 24 28
M  V30 28 1 25 29
M  V30 29 1 27 30
M  V30 30 1 29 31
M  V30 31 1 29 32
M  V30 32 1 30 33
M  V30 33 1 7 8
M  V30 34 1 17 19
M  V30 35 1 27 29
M  V30 36 1 3 34
M  V30 37 1 4 35
M  V30 38 1 5 36
M  V30 39 1 5 37
M  V30 40 1 7 38
M  V30 41 1 7 39
M  V30 42 1 8 40
M  V30 43 1 9 41
M  V30 44 1 9 42
M  V30 45 1 10 43
M  V30 46 1 11 44
M  V30 47 1 11 45
M  V30 48 1 12 46
M  V30 49 1 13 47
M  V30 50 1 14 48
M  V30 51 1 15 49
M  V30 52 1 16 50
M  V30 53 1 16 51
M  V30 54 1 17 52
M  V30 55 1 17 53
M  V30 56 1 19 54
M  V30 57 1 20 55
M  V30 58 1 21 56
M  V30 59 1 23 57
M  V30 60 1 24 58
M  V30 61 1 24 59
M  V30 62 1 25 60
M  V30 63 1 25 61
M  V30 64 1 26 62
M  V30 65 1 27 63
M  V30 66 1 28 64
M  V30 67 1 28 65
M  V30 68 1 28 66
M  V30 69 1 30 67
M  V30 70 1 31 68
M  V30 71 1 32 69
M  V30 72 1 32 70
M  V30 73 1 32 71
M  V30 74 1 33 72
M  V30 75 1 33 73
M  V30 76 1 33 74
M  V30 END BOND
M  V30 BEGIN COLLECTION
M  V30 MDLV30/STEABS ATOMS=(11 3 8 10 12 13 15 19 20 23 27 29)
M  V30 END COLLECTION
M  V30 END CTAB
M  END
>  <level_0>
7163

>  <index>
7163

>  <NO.>
7164

>  <Name>


>  <SMILES>
CCN[C@@H]1C[C@H](N)[C@H](O[C@@H]2C[C@@H](N)C=C(CN)O2)[C@H](O)[C@@H]1O[C@@H]1OC[C@@](C)(O)[C@@H](NC)[C@@H]1O

>  <logBB>


>  <Class>
-1

>  <MW>
475.3

>  <nHBAcc>
12

>  <nHBDon>
8

>  <SLogP>
-3.2

>  <TopoPSA>
199.73

>  <MMFF94 Energy>
143.19

$$$$
CC[C@@H](C)[C@H]1[C@H](C)[C@H]2C[C@]3(C[C@@H]4C[C@H](C/C=C(/C)[C@@H](O[C@@H]5C[C@@H](OC)[C@@H](O[C@H]6C[C@@H](OC)[C@@H](O)[C@H](C)O6)[C@H](C)O5)[C@@H](C)C=CC=C5CO[C@@H]6[C@@H](O)C(C)=C[C@H](C(=O)O4)[C@]56O)O3)O[C@@H]12
Actelion Java MolfileCreator 2.0

  0  0  0  0  0  0              0 V3000
M  V30 BEGIN CTAB
M  V30 COUNTS 137 144 0 0 0
M  V30 BEGIN ATOM
M  V30 1 O 1.5213 -2.6434 5.8548 0
M  V30 2 C 1.0167 -1.6399 5.3709 0
M  V30 3 O 0.181 -1.6589 4.2919 0
M  V30 4 C 1.1162 -0.2128 5.9235 0 CFG=1
M  V30 5 C -0.5118 -2.8987 4.036 0 CFG=2
M  V30 6 C 1.2347 -0.3183 7.4309 0
M  V30 7 C 2.1801 0.6994 5.2601 0 CFG=2
M  V30 8 C 0.2555 -3.843 3.117 0
M  V30 9 C -1.8496 -2.5094 3.4125 0
M  V30 10 C 2.2863 0.1182 8.1433 0
M  V30 11 O 1.7024 2.0525 5.2857 0
M  V30 12 C 2.6459 0.2697 3.8871 0
M  V30 13 C 3.5417 0.6584 5.9662 0 CFG=1
M  V30 14 C 0.2453 -3.4399 1.6362 0 CFG=2
M  V30 15 C -1.5901 -1.9421 2.0193 0 CFG=1
M  V30 16 C 3.475 0.7767 7.4977 0 CFG=1
M  V30 17 C 2.3437 -0.0251 9.6386 0
M  V30 18 C 2.2724 0.6475 2.652 0
M  V30 19 C 3.8339 -0.6405 4.1076 0
M  V30 20 O 4.1495 -0.5584 5.5071 0
M  V30 21 O -1.037 -2.9815 1.2095 0
M  V30 22 O 0.5697 -4.6252 0.8802 0
M  V30 23 C 1.3606 -2.4491 1.2486 0
M  V30 24 C -2.8458 -1.4057 1.3258 0
M  V30 25 O 3.4177 2.1607 7.8625 0
M  V30 26 C 1.2246 1.5487 2.2345 0
M  V30 27 C 1.401 -4.2824 -0.2497 0 CFG=2
M  V30 28 C 1.7589 -2.7952 -0.1837 0 CFG=1
M  V30 29 C -3.5532 -0.3334 2.1075 0
M  V30 30 C -0.0527 1.5314 2.6473 0
M  V30 31 C 0.7367 -4.0479 -1.6352 0 CFG=2
M  V30 32 C 0.7507 -2.5188 -1.3308 0 CFG=2
M  V30 33 C -3.3257 0.9991 2.1365 0
M  V30 34 C -1.1059 2.4751 2.095 0 CFG=1
M  V30 35 C -0.624 -4.7114 -1.8896 0 CFG=1
M  V30 36 C 1.2671 -1.6129 -2.4328 0
M  V30 37 C -2.2563 1.7371 1.3229 0 CFG=2
M  V30 38 C -4.2754 1.843 2.9603 0
M  V30 39 C -1.557 3.4373 3.1955 0
M  V30 40 C -1.3086 -4.1439 -3.1477 0
M  V30 41 C -0.4536 -6.2298 -1.9645 0
M  V30 42 O -2.9694 2.6983 0.5298 0
M  V30 43 C -0.5894 -4.4042 -4.4647 0
M  V30 44 C -2.6051 2.7882 -0.8467 0 CFG=1
M  V30 45 O -1.2027 2.9879 -1.0173 0
M  V30 46 C -3.0823 1.5782 -1.6561 0
M  V30 47 C -0.8651 3.2687 -2.3849 0 CFG=2
M  V30 48 C -2.7473 1.776 -3.1373 0 CFG=2
M  V30 49 C -1.2278 2.0642 -3.2771 0 CFG=1
M  V30 50 C 0.6268 3.5798 -2.4196 0
M  V30 51 O -3.5936 2.8479 -3.5867 0
M  V30 52 O -0.8414 2.3136 -4.6336 0
M  V30 53 C -3.6698 3.003 -4.9945 0
M  V30 54 C -0.5735 1.1278 -5.376 0 CFG=2
M  V30 55 O 0.6704 0.5371 -5.011 0
M  V30 56 C -0.6371 1.4107 -6.8789 0
M  V30 57 C 1.8075 1.3304 -5.3714 0 CFG=2
M  V30 58 C 0.5688 2.2009 -7.3865 0 CFG=2
M  V30 59 C 1.867 1.5441 -6.8913 0 CFG=1
M  V30 60 C 3.0514 0.6068 -4.8647 0
M  V30 61 O 0.5831 3.5663 -6.9303 0
M  V30 62 O 2.9775 2.3713 -7.251 0
M  V30 63 C -0.3299 4.4084 -7.6214 0
M  V30 64 H 0.129 0.2454 5.7603 0
M  V30 65 H -0.7122 -3.3977 4.993 0
M  V30 66 H 0.4019 -0.7979 7.9434 0
M  V30 67 H 1.2854 -3.9851 3.464 0
M  V30 68 H -0.2226 -4.8295 3.197 0
M  V30 69 H -2.493 -3.395 3.3461 0
M  V30 70 H -2.3446 -1.7688 4.05 0
M  V30 71 H 2.0312 2.504 4.4883 0
M  V30 72 H 4.1721 1.4892 5.6099 0
M  V30 73 H -0.8812 -1.1131 2.0716 0
M  V30 74 H 4.3955 0.3589 7.9215 0
M  V30 75 H 1.4549 -0.5248 10.0383 0
M  V30 76 H 3.2165 -0.6185 9.9296 0
M  V30 77 H 2.4146 0.957 10.1167 0
M  V30 78 H 2.8485 0.2614 1.8081 0
M  V30 79 H 4.7088 -0.3135 3.5366 0
M  V30 80 H 3.604 -1.6824 3.8691 0
M  V30 81 H 1.0543 -1.4063 1.3119 0
M  V30 82 H 2.2366 -2.5926 1.8914 0
M  V30 83 H -3.5476 -2.2304 1.1444 0
M  V30 84 H -2.5852 -1.0493 0.3231 0
M  V30 85 H 2.5938 2.512 7.4729 0
M  V30 86 H 1.5149 2.2447 1.446 0
M  V30 87 H 2.2659 -4.9534 -0.2907 0
M  V30 88 H 2.8025 -2.5661 -0.4262 0
M  V30 89 H -4.369 -0.724 2.7185 0
M  V30 90 H -0.3845 0.8281 3.4047 0
M  V30 91 H 1.4466 -4.3115 -2.4339 0
M  V30 92 H -0.2166 -2.1407 -0.9779 0
M  V30 93 H -0.6144 3.1243 1.3585 0
M  V30 94 H -1.2933 -4.4963 -1.0472 0
M  V30 95 H 2.2339 -1.9529 -2.8173 0
M  V30 96 H 0.5622 -1.5839 -3.2684 0
M  V30 97 H 1.3885 -0.5901 -2.0614 0
M  V30 98 H -1.7681 1.0149 0.6598 0
M  V30 99 H -4.5173 2.7871 2.4637 0
M  V30 100 H -3.8529 2.0572 3.9445 0
M  V30 101 H -5.2312 1.332 3.126 0
M  V30 102 H -2.3694 4.0852 2.8525 0
M  V30 103 H -0.7264 4.0898 3.4917 0
M  V30 104 H -1.8748 2.9099 4.0995 0
M  V30 105 H -1.4457 -3.0622 -3.0335 0
M  V30 106 H -2.3168 -4.5712 -3.2198 0
M  V30 107 H -0.1061 -6.6296 -1.0061 0
M  V30 108 H -1.4038 -6.7185 -2.2033 0
M  V30 109 H 0.2841 -6.5199 -2.7195 0
M  V30 110 H -1.1523 -3.9537 -5.289 0
M  V30 111 H -0.5042 -5.4746 -4.6721 0
M  V30 112 H 0.4124 -3.9667 -4.4732 0
M  V30 113 H -3.1185 3.6887 -1.2047 0
M  V30 114 H -2.594 0.6622 -1.3095 0
M  V30 115 H -4.1608 1.4457 -1.5096 0
M  V30 116 H -1.3959 4.1717 -2.7131 0
M  V30 117 H -3.0228 0.869 -3.6872 0
M  V30 118 H -0.6815 1.1901 -2.8947 0
M  V30 119 H 1.218 2.7011 -2.1391 0
M  V30 120 H 0.9418 3.9184 -3.4102 0
M  V30 121 H 0.8694 4.3659 -1.696 0
M  V30 122 H -2.8059 3.5585 -5.3646 0
M  V30 123 H -4.5613 3.5948 -5.2208 0
M  V30 124 H -3.7592 2.0383 -5.5021 0
M  V30 125 H -1.3519 0.3883 -5.1566 0
M  V30 126 H -1.5698 1.9316 -7.1143 0
M  V30 127 H -0.6482 0.4486 -7.4068 0
M  V30 128 H 1.7628 2.2942 -4.8531 0
M  V30 129 H 0.5827 2.2136 -8.4837 0
M  V30 130 H 1.9879 0.5764 -7.393 0
M  V30 131 H 2.9982 0.478 -3.7787 0
M  V30 132 H 3.1251 -0.3964 -5.2983 0
M  V30 133 H 3.9657 1.1603 -5.0978 0
M  V30 134 H 2.6893 3.2851 -7.0491 0
M  V30 135 H -0.1227 4.4016 -8.6955 0
M  V30 136 H -0.1984 5.4285 -7.2505 0
M  V30 137 H -1.3634 4.1084 -7.4338 0
M  V30 END ATOM
M  V30 BEGIN BOND
M  V30 1 2 1 2
M  V30 2 1 2 3
M  V30 3 1 2 4
M  V30 4 1 3 5
M  V30 5 1 4 6
M  V30 6 1 4 7
M  V30 7 1 5 8
M  V30 8 1 5 9
M  V30 9 2 6 10
M  V30 10 1 7 11
M  V30 11 1 7 12
M  V30 12 1 7 13
M  V30 13 1 8 14
M  V30 14 1 9 15
M  V30 15 1 10 16
M  V30 16 1 10 17
M  V30 17 2 12 18
M  V30 18 1 12 19
M  V30 19 1 13 20
M  V30 20 1 14 21
M  V30 21 1 14 22
M  V30 22 1 14 23
M  V30 23 1 15 24
M  V30 24 1 16 25
M  V30 25 1 18 26
M  V30 26 1 22 27
M  V30 27 1 23 28
M  V30 28 1 24 29
M  V30 29 2 26 30
M  V30 30 1 27 31
M  V30 31 1 28 32
M  V30 32 2 29 33
M  V30 33 1 30 34
M  V30 34 1 31 35
M  V30 35 1 32 36
M  V30 36 1 33 37
M  V30 37 1 33 38
M  V30 38 1 34 39
M  V30 39 1 35 40
M  V30 40 1 35 41
M  V30 41 1 37 42
M  V30 42 1 40 43
M  V30 43 1 42 44
M  V30 44 1 44 45
M  V30 45 1 44 46
M  V30 46 1 45 47
M  V30 47 1 46 48
M  V30 48 1 47 49
M  V30 49 1 47 50
M  V30 50 1 48 51
M  V30 51 1 49 52
M  V30 52 1 51 53
M  V30 53 1 52 54
M  V30 54 1 54 55
M  V30 55 1 54 56
M  V30 56 1 55 57
M  V30 57 1 56 58
M  V30 58 1 57 59
M  V30 59 1 57 60
M  V30 60 1 58 61
M  V30 61 1 59 62
M  V30 62 1 61 63
M  V30 63 1 13 16
M  V30 64 1 15 21
M  V30 65 1 19 20
M  V30 66 1 27 28
M  V30 67 1 31 32
M  V30 68 1 34 37
M  V30 69 1 48 49
M  V30 70 1 58 59
M  V30 71 1 4 64
M  V30 72 1 5 65
M  V30 73 1 6 66
M  V30 74 1 8 67
M  V30 75 1 8 68
M  V30 76 1 9 69
M  V30 77 1 9 70
M  V30 78 1 11 71
M  V30 79 1 13 72
M  V30 80 1 15 73
M  V30 81 1 16 74
M  V30 82 1 17 75
M  V30 83 1 17 76
M  V30 84 1 17 77
M  V30 85 1 18 78
M  V30 86 1 19 79
M  V30 87 1 19 80
M  V30 88 1 23 81
M  V30 89 1 23 82
M  V30 90 1 24 83
M  V30 91 1 24 84
M  V30 92 1 25 85
M  V30 93 1 26 86
M  V30 94 1 27 87
M  V30 95 1 28 88
M  V30 96 1 29 89
M  V30 97 1 30 90
M  V30 98 1 31 91
M  V30 99 1 32 92
M  V30 100 1 34 93
M  V30 101 1 35 94
M  V30 102 1 36 95
M  V30 103 1 36 96
M  V30 104 1 36 97
M  V30 105 1 37 98
M  V30 106 1 38 99
M  V30 107 1 38 100
M  V30 108 1 38 101
M  V30 109 1 39 102
M  V30 110 1 39 103
M  V30 111 1 39 104
M  V30 112 1 40 105
M  V30 113 1 40 106
M  V30 114 1 41 107
M  V30 115 1 41 108
M  V30 116 1 41 109
M  V30 117 1 43 110
M  V30 118 1 43 111
M  V30 119 1 43 112
M  V30 120 1 44 113
M  V30 121 1 46 114
M  V30 122 1 46 115
M  V30 123 1 47 116
M  V30 124 1 48 117
M  V30 125 1 49 118
M  V30 126 1 50 119
M  V30 127 1 50 120
M  V30 128 1 50 121
M  V30 129 1 53 122
M  V30 130 1 53 123
M  V30 131 1 53 124
M  V30 132 1 54 125
M  V30 133 1 56 126
M  V30 134 1 56 127
M  V30 135 1 57 128
M  V30 136 1 58 129
M  V30 137 1 59 130
M  V30 138 1 60 131
M  V30 139 1 60 132
M  V30 140 1 60 133
M  V30 141 1 62 134
M  V30 142 1 63 135
M  V30 143 1 63 136
M  V30 144 1 63 137
M  V30 END BOND
M  V30 BEGIN COLLECTION
M  V30 MDLV30/STEABS ATOMS=(22 4 5 7 13 14 15 16 27 28 31 32 34 35 37 44 47 48 49 54 57 58 59)
M  V30 END COLLECTION
M  V30 END CTAB
M  END
>  <level_0>
7189

>  <index>
7189

>  <NO.>
7190

>  <Name>


>  <SMILES>
CC[C@@H](C)[C@H]1[C@H](C)[C@H]2C[C@]3(C[C@@H]4C[C@H](C/C=C(/C)[C@@H](O[C@@H]5C[C@@H](OC)[C@@H](O[C@H]6C[C@@H](OC)[C@@H](O)[C@H](C)O6)[C@H](C)O5)[C@@H](C)C=CC=C5CO[C@@H]6[C@@H](O)C(C)=C[C@H](C(=O)O4)[C@]56O)O3)O[C@@H]12

>  <logBB>


>  <Class>
1

>  <MW>
886.51

>  <nHBAcc>
14

>  <nHBDon>
3

>  <SLogP>
5.46

>  <TopoPSA>
170.06

>  <MMFF94 Energy>
201.57

$$$$
CC[C@@H]1CC[C@H](N)[C@H](O[C@@H]2[C@@H](N)C[C@H](N)[C@H](O[C@@H]3OC[C@@](C)(O)[C@H](NC)[C@@H]3O)[C@H]2O)O1
Actelion Java MolfileCreator 2.0

  0  0  0  0  0  0              0 V3000
M  V30 BEGIN CTAB
M  V30 COUNTS 71 73 0 0 0
M  V30 BEGIN ATOM
M  V30 1 O 0.9488 1.5817 0.6324 0
M  V30 2 C 1.7327 1.005 1.6802 0 CFG=1
M  V30 3 C 1.5084 2.8103 0.1533 0 CFG=1
M  V30 4 O 1.1414 -0.211 2.1558 0
M  V30 5 C 3.1696 0.6587 1.1758 0 CFG=1
M  V30 6 C 2.8961 2.5664 -0.45 0
M  V30 7 C 0.5655 3.4056 -0.8987 0
M  V30 8 C 0.0487 -0.0216 3.0741 0 CFG=1
M  V30 9 N 3.1712 -0.4265 0.1719 0
M  V30 10 C 3.8184 1.9029 0.5707 0
M  V30 11 C -0.7974 3.7658 -0.3235 0
M  V30 12 C -1.2928 0.238 2.3468 0 CFG=2
M  V30 13 C 0.0127 -1.2859 3.9832 0 CFG=1
M  V30 14 O -2.2551 0.7778 3.2638 0
M  V30 15 C -1.8505 -1.0194 1.6379 0 CFG=1
M  V30 16 N -0.74 -1.0867 5.2284 0
M  V30 17 C -0.5444 -2.5051 3.2333 0
M  V30 18 O -1.0426 -1.4201 0.5147 0
M  V30 19 C -1.9197 -2.2204 2.6168 0 CFG=2
M  V30 20 C -1.2534 -0.6279 -0.6589 0 CFG=2
M  V30 21 N -2.3887 -3.4422 1.9266 0
M  V30 22 O -2.5552 -0.8948 -1.1826 0
M  V30 23 C -0.1431 -1.0148 -1.6644 0 CFG=1
M  V30 24 C -2.8094 -0.1506 -2.3759 0
M  V30 25 O -0.0686 -2.4442 -1.8299 0
M  V30 26 C -0.3889 -0.3365 -3.0243 0 CFG=2
M  V30 27 C -1.8544 -0.5487 -3.5126 0 CFG=2
M  V30 28 N 0.5619 -0.7499 -4.094 0
M  V30 29 O -2.0685 0.3314 -4.6315 0
M  V30 30 C -2.1834 -1.9686 -3.995 0
M  V30 31 C 1.8975 -0.2014 -3.8756 0
M  V30 32 H 1.8166 1.7201 2.5094 0
M  V30 33 H 1.5876 3.5119 0.9943 0
M  V30 34 H 3.7575 0.3028 2.0304 0
M  V30 35 H 3.3379 3.5111 -0.7868 0
M  V30 36 H 2.8095 1.9157 -1.329 0
M  V30 37 H 0.415 2.6877 -1.7125 0
M  V30 38 H 1.0146 4.3068 -1.3321 0
M  V30 39 H 0.2793 0.8343 3.7228 0
M  V30 40 H 4.091 -0.8625 0.1436 0
M  V30 41 H 2.5223 -1.1457 0.506 0
M  V30 42 H 4.7813 1.6597 0.1056 0
M  V30 43 H 4.0337 2.6189 1.3743 0
M  V30 44 H -1.4229 4.223 -1.0969 0
M  V30 45 H -1.3217 2.8819 0.0495 0
M  V30 46 H -0.6987 4.4809 0.4993 0
M  V30 47 H -1.1407 1.0234 1.6079 0
M  V30 48 H 1.0449 -1.5251 4.2709 0
M  V30 49 H -3.0867 0.9193 2.7799 0
M  V30 50 H -2.8745 -0.8197 1.2949 0
M  V30 51 H -0.6428 -1.9057 5.8274 0
M  V30 52 H -0.3651 -0.2937 5.7458 0
M  V30 53 H -0.6085 -3.3642 3.9151 0
M  V30 54 H 0.1693 -2.7974 2.451 0
M  V30 55 H -2.6384 -1.9969 3.4141 0
M  V30 56 H -1.1768 0.4377 -0.4262 0
M  V30 57 H -1.7916 -3.572 1.1067 0
M  V30 58 H -3.3127 -3.2592 1.5337 0
M  V30 59 H 0.8217 -0.7127 -1.2503 0
M  V30 60 H -2.743 0.924 -2.1606 0
M  V30 61 H -3.8498 -0.3304 -2.6706 0
M  V30 62 H -0.2394 -2.8017 -0.9357 0
M  V30 63 H -0.2691 0.7476 -2.8903 0
M  V30 64 H 0.6358 -1.7726 -4.0263 0
M  V30 65 H -1.2804 0.1948 -5.1983 0
M  V30 66 H -2.1156 -2.7144 -3.1994 0
M  V30 67 H -3.2043 -2.0037 -4.3948 0
M  V30 68 H -1.5335 -2.2756 -4.821 0
M  V30 69 H 2.5471 -0.5007 -4.7039 0
M  V30 70 H 1.8778 0.8929 -3.8539 0
M  V30 71 H 2.3502 -0.5717 -2.9515 0
M  V30 END ATOM
M  V30 BEGIN BOND
M  V30 1 1 1 2
M  V30 2 1 1 3
M  V30 3 1 2 4
M  V30 4 1 2 5
M  V30 5 1 3 6
M  V30 6 1 3 7
M  V30 7 1 4 8
M  V30 8 1 5 9
M  V30 9 1 5 10
M  V30 10 1 7 11
M  V30 11 1 8 12
M  V30 12 1 8 13
M  V30 13 1 12 14
M  V30 14 1 12 15
M  V30 15 1 13 16
M  V30 16 1 13 17
M  V30 17 1 15 18
M  V30 18 1 15 19
M  V30 19 1 18 20
M  V30 20 1 19 21
M  V30 21 1 20 22
M  V30 22 1 20 23
M  V30 23 1 22 24
M  V30 24 1 23 25
M  V30 25 1 23 26
M  V30 26 1 24 27
M  V30 27 1 26 28
M  V30 28 1 27 29
M  V30 29 1 27 30
M  V30 30 1 28 31
M  V30 31 1 6 10
M  V30 32 1 17 19
M  V30 33 1 26 27
M  V30 34 1 2 32
M  V30 35 1 3 33
M  V30 36 1 5 34
M  V30 37 1 6 35
M  V30 38 1 6 36
M  V30 39 1 7 37
M  V30 40 1 7 38
M  V30 41 1 8 39
M  V30 42 1 9 40
M  V30 43 1 9 41
M  V30 44 1 10 42
M  V30 45 1 10 43
M  V30 46 1 11 44
M  V30 47 1 11 45
M  V30 48 1 11 46
M  V30 49 1 12 47
M  V30 50 1 13 48
M  V30 51 1 14 49
M  V30 52 1 15 50
M  V30 53 1 16 51
M  V30 54 1 16 52
M  V30 55 1 17 53
M  V30 56 1 17 54
M  V30 57 1 19 55
M  V30 58 1 20 56
M  V30 59 1 21 57
M  V30 60 1 21 58
M  V30 61 1 23 59
M  V30 62 1 24 60
M  V30 63 1 24 61
M  V30 64 1 25 62
M  V30 65 1 26 63
M  V30 66 1 28 64
M  V30 67 1 29 65
M  V30 68 1 30 66
M  V30 69 1 30 67
M  V30 70 1 30 68
M  V30 71 1 31 69
M  V30 72 1 31 70
M  V30 73 1 31 71
M  V30 END BOND
M  V30 BEGIN COLLECTION
M  V30 MDLV30/STEABS ATOMS=(12 2 3 5 8 12 13 15 19 20 23 26 27)
M  V30 END COLLECTION
M  V30 END CTAB
M  END
>  <level_0>
7195

>  <index>
7195

>  <NO.>
7196

>  <Name>


>  <SMILES>
CC[C@@H]1CC[C@H](N)[C@H](O[C@@H]2[C@@H](N)C[C@H](N)[C@H](O[C@@H]3OC[C@@](C)(O)[C@H](NC)[C@@H]3O)[C@H]2O)O1

>  <logBB>


>  <Class>
-1

>  <MW>
448.29

>  <nHBAcc>
11

>  <nHBDon>
7

>  <SLogP>
-2.53

>  <TopoPSA>
187.7

>  <MMFF94 Energy>
206.61

$$$$
CN(C)[C@H]1C(O)=C(C(=O)NCN2CCN(C(=N)NC(=N)N)CC2)C(=O)[C@@]2(O)C(O)=C3C(=O)c4c(O)cccc4[C@@](C)(O)[C@H]3C[C@@H]12
Actelion Java MolfileCreator 2.0

  0  0  0  0  0  0              0 V3000
M  V30 BEGIN CTAB
M  V30 COUNTS 83 87 0 0 0
M  V30 BEGIN ATOM
M  V30 1 O 2.3141 -1.9148 2.5538 0
M  V30 2 C 1.2692 -2.5247 2.3312 0
M  V30 3 C 0.765 -3.5377 3.283 0
M  V30 4 C 0.4033 -2.1918 1.1797 0
M  V30 5 C 1.2502 -3.5486 4.6004 0
M  V30 6 C -0.2035 -4.4734 2.8778 0
M  V30 7 C 0.4755 -0.9616 0.6291 0
M  V30 8 C -0.6649 -3.1523 0.7239 0 CFG=1
M  V30 9 O 2.2073 -2.6808 5.0554 0
M  V30 10 C 0.7654 -4.4664 5.5261 0
M  V30 11 C -0.6607 -5.4133 3.8225 0
M  V30 12 C -0.6397 -4.5479 1.4223 0 CFG=2
M  V30 13 O 1.4564 -0.0354 0.9343 0
M  V30 14 C -0.6532 -0.5026 -0.2734 0 CFG=2
M  V30 15 C -2.046 -2.4544 0.7102 0
M  V30 16 C -0.1906 -5.3998 5.1373 0
M  V30 17 O -1.9349 -5.1528 1.3165 0
M  V30 18 C 0.3307 -5.4914 0.6864 0
M  V30 19 O -0.4856 -1.1524 -1.5462 0
M  V30 20 C -0.6117 1.0183 -0.5509 0
M  V30 21 C -2.0123 -0.948 0.2964 0 CFG=1
M  V30 22 O 0.2385 1.5022 -1.3166 0
M  V30 23 C -1.6165 1.9308 0.0944 0
M  V30 24 C -2.5167 -0.0208 1.4394 0 CFG=2
M  V30 25 C -2.4682 1.4383 1.0205 0
M  V30 26 C -1.6801 3.3968 -0.2398 0
M  V30 27 N -1.9114 -0.3307 2.7616 0
M  V30 28 O -3.4206 2.2142 1.6764 0
M  V30 29 O -2.4087 4.168 0.381 0
M  V30 30 N -0.8856 3.7905 -1.2712 0
M  V30 31 C -2.9548 -0.5805 3.7678 0
M  V30 32 C -0.9934 0.6778 3.3013 0
M  V30 33 C -0.7198 5.1412 -1.7114 0
M  V30 34 N 0.2808 5.17 -2.7735 0
M  V30 35 C -0.1717 4.4858 -4.0046 0
M  V30 36 C 1.629 4.7727 -2.3093 0
M  V30 37 C 0.913 4.4 -5.0972 0
M  V30 38 C 2.6746 4.5404 -3.4236 0
M  V30 39 N 2.1015 3.76 -4.5236 0
M  V30 40 C 2.3405 2.4298 -4.7367 0
M  V30 41 N 2.621 2.008 -5.9306 0
M  V30 42 N 2.2094 1.6079 -3.6538 0
M  V30 43 C 2.3484 0.267 -3.4658 0
M  V30 44 N 2.1415 -0.3315 -2.3374 0
M  V30 45 N 2.7049 -0.4467 -4.5425 0
M  V30 46 H -0.4548 -3.3618 -0.3363 0
M  V30 47 H 2.562 -2.1871 4.2839 0
M  V30 48 H 1.1446 -4.4619 6.5448 0
M  V30 49 H -1.3707 -6.1875 3.5336 0
M  V30 50 H 2.135 -0.4886 1.4867 0
M  V30 51 H -2.5456 -2.5827 1.6757 0
M  V30 52 H -2.6844 -2.9841 -0.0106 0
M  V30 53 H -0.5549 -6.1325 5.8538 0
M  V30 54 H -2.4985 -4.779 2.0157 0
M  V30 55 H 0.3344 -6.4891 1.1425 0
M  V30 56 H 1.3593 -5.1149 0.6887 0
M  V30 57 H 0.0182 -5.6365 -0.3544 0
M  V30 58 H 0.4352 -0.9722 -1.8529 0
M  V30 59 H -2.7492 -0.8539 -0.5183 0
M  V30 60 H -3.5903 -0.2622 1.4985 0
M  V30 61 H -3.3178 3.1566 1.4084 0
M  V30 62 H -0.3189 3.0827 -1.723 0
M  V30 63 H -3.5766 0.3042 3.9463 0
M  V30 64 H -3.6069 -1.405 3.4591 0
M  V30 65 H -2.5062 -0.8864 4.72 0
M  V30 66 H -1.5067 1.5972 3.6064 0
M  V30 67 H -0.2088 0.9461 2.5918 0
M  V30 68 H -0.4789 0.277 4.1827 0
M  V30 69 H -1.6865 5.5243 -2.0578 0
M  V30 70 H -0.4142 5.7597 -0.8597 0
M  V30 71 H -1.0351 5.0223 -4.4158 0
M  V30 72 H -0.5014 3.4622 -3.7887 0
M  V30 73 H 2.0125 5.5497 -1.6365 0
M  V30 74 H 1.5896 3.8548 -1.7149 0
M  V30 75 H 0.5303 3.8362 -5.9558 0
M  V30 76 H 1.1698 5.4035 -5.4577 0
M  V30 77 H 3.562 4.0456 -3.012 0
M  V30 78 H 3.0068 5.5095 -3.8162 0
M  V30 79 H 2.6681 2.8415 -6.5251 0
M  V30 80 H 1.8306 2.0646 -2.841 0
M  V30 81 H 1.9152 0.386 -1.6323 0
M  V30 82 H 2.8263 -1.444 -4.4836 0
M  V30 83 H 2.8371 0.0472 -5.4243 0
M  V30 END ATOM
M  V30 BEGIN BOND
M  V30 1 2 1 2
M  V30 2 1 2 3
M  V30 3 1 2 4
M  V30 4 2 3 5
M  V30 5 1 3 6
M  V30 6 2 4 7
M  V30 7 1 4 8
M  V30 8 1 5 9
M  V30 9 1 5 10
M  V30 10 2 6 11
M  V30 11 1 6 12
M  V30 12 1 7 13
M  V30 13 1 7 14
M  V30 14 1 8 15
M  V30 15 2 10 16
M  V30 16 1 12 17
M  V30 17 1 12 18
M  V30 18 1 14 19
M  V30 19 1 14 20
M  V30 20 1 14 21
M  V30 21 2 20 22
M  V30 22 1 20 23
M  V30 23 1 21 24
M  V30 24 2 23 25
M  V30 25 1 23 26
M  V30 26 1 24 27
M  V30 27 1 25 28
M  V30 28 2 26 29
M  V30 29 1 26 30
M  V30 30 1 27 31
M  V30 31 1 27 32
M  V30 32 1 30 33
M  V30 33 1 33 34
M  V30 34 1 34 35
M  V30 35 1 34 36
M  V30 36 1 35 37
M  V30 37 1 36 38
M  V30 38 1 37 39
M  V30 39 1 39 40
M  V30 40 2 40 41
M  V30 41 1 40 42
M  V30 42 1 42 43
M  V30 43 2 43 44
M  V30 44 1 43 45
M  V30 45 1 8 12
M  V30 46 1 11 16
M  V30 47 1 15 21
M  V30 48 1 24 25
M  V30 49 1 38 39
M  V30 50 1 8 46
M  V30 51 1 9 47
M  V30 52 1 10 48
M  V30 53 1 11 49
M  V30 54 1 13 50
M  V30 55 1 15 51
M  V30 56 1 15 52
M  V30 57 1 16 53
M  V30 58 1 17 54
M  V30 59 1 18 55
M  V30 60 1 18 56
M  V30 61 1 18 57
M  V30 62 1 19 58
M  V30 63 1 21 59
M  V30 64 1 24 60
M  V30 65 1 28 61
M  V30 66 1 30 62
M  V30 67 1 31 63
M  V30 68 1 31 64
M  V30 69 1 31 65
M  V30 70 1 32 66
M  V30 71 1 32 67
M  V30 72 1 32 68
M  V30 73 1 33 69
M  V30 74 1 33 70
M  V30 75 1 35 71
M  V30 76 1 35 72
M  V30 77 1 36 73
M  V30 78 1 36 74
M  V30 79 1 37 75
M  V30 80 1 37 76
M  V30 81 1 38 77
M  V30 82 1 38 78
M  V30 83 1 41 79
M  V30 84 1 42 80
M  V30 85 1 44 81
M  V30 86 1 45 82
M  V30 87 1 45 83
M  V30 END BOND
M  V30 BEGIN COLLECTION
M  V30 MDLV30/STEABS ATOMS=(5 8 12 14 21 24)
M  V30 END COLLECTION
M  V30 END CTAB
M  END
>  <level_0>
7268

>  <index>
7268

>  <NO.>
7269

>  <Name>
guamecycline

>  <SMILES>
CN(C)[C@H]1C(O)=C(C(=O)NCN2CCN(C(=N)NC(=N)N)CC2)C(=O)[C@@]2(O)C(O)=C3C(=O)c4c(O)cccc4[C@@](C)(O)[C@H]3C[C@@H]12

>  <logBB>


>  <Class>
-1

>  <MW>
626.28

>  <nHBAcc>
12

>  <nHBDon>
10

>  <SLogP>
-1.59

>  <TopoPSA>
259.86

>  <MMFF94 Energy>
-75.479

$$$$
CO/N=C(\C(=O)N[C@@H]1C(=O)N2C(C(=O)O)=C(C[n+]3ccccc3)CS[C@@H]12)c1csc(N)n1
Actelion Java MolfileCreator 2.0

  0  0  0  0  0  0              0 V3000
M  V30 BEGIN CTAB
M  V30 COUNTS 51 54 0 0 0
M  V30 BEGIN ATOM
M  V30 1 S -2.2137 -0.3277 -0.2457 0
M  V30 2 C -0.4236 -0.0285 -0.272 0 CFG=2
M  V30 3 C -2.1734 -1.0385 1.423 0
M  V30 4 N -0.1436 0.8985 0.8007 0
M  V30 5 C 0.0812 1.0768 -1.2552 0 CFG=1
M  V30 6 C -1.4929 -0.1381 2.4418 0
M  V30 7 C -0.535 0.7579 2.0936 0
M  V30 8 C 0.4538 1.8531 0.0578 0
M  V30 9 N 1.2393 0.742 -2.1216 0
M  V30 10 C -1.9632 -0.3608 3.8667 0
M  V30 11 C 0.0722 1.6716 3.1022 0
M  V30 12 O 0.9687 2.9057 0.3481 0
M  V30 13 C 1.3133 -0.4258 -2.8532 0
M  V30 14 N -3.3782 0.0617 4.0603 0 CHG=1
M  V30 15 O -0.5469 2.2451 3.9809 0
M  V30 16 O 1.406 1.7031 2.9942 0
M  V30 17 O 0.5018 -1.336 -2.769 0
M  V30 18 C 2.5461 -0.5386 -3.7547 0
M  V30 19 C -3.7067 1.3765 4.007 0
M  V30 20 C -4.3263 -0.8663 4.3398 0
M  V30 21 N 2.8577 0.3864 -4.6198 0
M  V30 22 C 3.4479 -1.6868 -3.6343 0
M  V30 23 C -5.0191 1.7905 4.2054 0
M  V30 24 C -5.65 -0.4941 4.5443 0
M  V30 25 O 1.9159 1.4237 -4.6755 0
M  V30 26 N 4.6928 -1.6945 -4.2662 0
M  V30 27 C 3.1929 -2.8361 -2.9064 0
M  V30 28 C -6.0001 0.8466 4.4734 0
M  V30 29 C 2.2812 2.2978 -5.7409 0
M  V30 30 C 5.3335 -2.8103 -4.0313 0
M  V30 31 S 4.5101 -3.9261 -3.0245 0
M  V30 32 N 6.5437 -3.0765 -4.5276 0
M  V30 33 H 0.1981 -0.9288 -0.2099 0
M  V30 34 H -1.6748 -2.0136 1.4007 0
M  V30 35 H -3.2176 -1.2111 1.6973 0
M  V30 36 H -0.694 1.5917 -1.8351 0
M  V30 37 H 1.939 1.4504 -2.3417 0
M  V30 38 H -1.8893 -1.4294 4.1033 0
M  V30 39 H -1.3808 0.1502 4.6369 0
M  V30 40 H 1.7308 2.4007 3.6025 0
M  V30 41 H -2.9199 2.0954 3.8046 0
M  V30 42 H -4.0211 -1.9074 4.3946 0
M  V30 43 H -5.2732 2.8475 4.1546 0
M  V30 44 H -6.4065 -1.2456 4.7612 0
M  V30 45 H 2.3165 -3.1035 -2.334 0
M  V30 46 H -7.0325 1.1564 4.632 0
M  V30 47 H 2.2726 1.7578 -6.6926 0
M  V30 48 H 3.2714 2.7254 -5.5561 0
M  V30 49 H 1.5493 3.1084 -5.7876 0
M  V30 50 H 7.0246 -3.9482 -4.3555 0
M  V30 51 H 6.9953 -2.4016 -5.132 0
M  V30 END ATOM
M  V30 BEGIN BOND
M  V30 1 1 1 2
M  V30 2 1 1 3
M  V30 3 1 2 4
M  V30 4 1 2 5
M  V30 5 1 3 6
M  V30 6 1 4 7
M  V30 7 1 4 8
M  V30 8 1 5 9
M  V30 9 1 6 10
M  V30 10 1 7 11
M  V30 11 2 8 12
M  V30 12 1 9 13
M  V30 13 1 10 14
M  V30 14 2 11 15
M  V30 15 1 11 16
M  V30 16 2 13 17
M  V30 17 1 13 18
M  V30 18 2 14 19
M  V30 19 1 14 20
M  V30 20 2 18 21
M  V30 21 1 18 22
M  V30 22 1 19 23
M  V30 23 2 20 24
M  V30 24 1 21 25
M  V30 25 1 22 26
M  V30 26 2 22 27
M  V30 27 2 23 28
M  V30 28 1 25 29
M  V30 29 2 26 30
M  V30 30 1 27 31
M  V30 31 1 30 32
M  V30 32 1 5 8
M  V30 33 2 6 7
M  V30 34 1 24 28
M  V30 35 1 30 31
M  V30 36 1 2 33
M  V30 37 1 3 34
M  V30 38 1 3 35
M  V30 39 1 5 36
M  V30 40 1 9 37
M  V30 41 1 10 38
M  V30 42 1 10 39
M  V30 43 1 16 40
M  V30 44 1 19 41
M  V30 45 1 20 42
M  V30 46 1 23 43
M  V30 47 1 24 44
M  V30 48 1 27 45
M  V30 49 1 28 46
M  V30 50 1 29 47
M  V30 51 1 29 48
M  V30 52 1 29 49
M  V30 53 1 32 50
M  V30 54 1 32 51
M  V30 END BOND
M  V30 BEGIN COLLECTION
M  V30 MDLV30/STEABS ATOMS=(2 2 5)
M  V30 END COLLECTION
M  V30 END CTAB
M  END
>  <level_0>
7343

>  <index>
7343

>  <NO.>
7344

>  <Name>


>  <SMILES>
CO/N=C(\C(=O)N[C@@H]1C(=O)N2C(C(=O)O)=C(C[n+]3ccccc3)CS[C@@H]12)c1csc(N)n1

>  <logBB>


>  <Class>
-1

>  <MW>
475.09

>  <nHBAcc>
9

>  <nHBDon>
3

>  <SLogP>
-0.2

>  <TopoPSA>
151.09

>  <MMFF94 Energy>
68.564

$$$$
COCC1=C(C(=O)O[C@H](C)OC(=O)OC(C)C)N2C(=O)[C@H](NC(=O)C(=NOC)c3csc(N)n3)[C@@H]2SC1
Actelion Java MolfileCreator 2.0

  0  0  0  0  0  0              0 V3000
M  V30 BEGIN CTAB
M  V30 COUNTS 64 66 0 0 0
M  V30 BEGIN ATOM
M  V30 1 S 1.5405 0.7295 2.4332 0
M  V30 2 C 1.6053 -1.068 2.2447 0 CFG=2
M  V30 3 C 2.8185 1.0223 1.164 0
M  V30 4 N 1.2249 -1.3768 0.8844 0
M  V30 5 C 0.3806 -1.9248 2.6897 0 CFG=2
M  V30 6 C 2.5764 0.2722 -0.133 0
M  V30 7 C 1.7909 -0.8261 -0.2181 0
M  V30 8 C 0.2818 -2.2939 1.1689 0
M  V30 9 N -0.7969 -1.2237 3.2552 0
M  V30 10 C 3.2676 0.8963 -1.3223 0
M  V30 11 C 1.4761 -1.4325 -1.5424 0
M  V30 12 O -0.3842 -3.0262 0.4775 0
M  V30 13 C -0.8698 -0.9148 4.5982 0
M  V30 14 O 2.6804 2.1742 -1.5501 0
M  V30 15 O 2.3099 -1.9939 -2.2351 0
M  V30 16 O 0.1745 -1.2081 -1.824 0
M  V30 17 O -0.003 -1.1798 5.4181 0
M  V30 18 C -2.1345 -0.1524 4.9946 0
M  V30 19 C 3.2144 2.7994 -2.7092 0
M  V30 20 C -0.3306 -1.6863 -3.0794 0 CFG=1
M  V30 21 N -2.4455 0.8541 4.2212 0
M  V30 22 C -2.8994 -0.6152 6.1484 0
M  V30 23 O 0.3949 -1.2093 -4.2148 0
M  V30 24 C -0.3766 -3.2109 -3.1218 0
M  V30 25 O -3.6602 1.4658 4.5585 0
M  V30 26 N -3.0071 -1.9805 6.4135 0
M  V30 27 C -3.5398 0.1864 7.0768 0
M  V30 28 C 0.1417 0.076 -4.5464 0
M  V30 29 C -3.8893 2.5415 3.6546 0
M  V30 30 C -3.7148 -2.1872 7.495 0
M  V30 31 S -4.2976 -0.7752 8.2734 0
M  V30 32 O -0.6475 0.8238 -3.991 0
M  V30 33 O 0.9137 0.3926 -5.6166 0
M  V30 34 N -3.9749 -3.4061 7.9752 0
M  V30 35 C 0.7704 1.7298 -6.125 0
M  V30 36 C 2.0558 2.0669 -6.8714 0
M  V30 37 C -0.4289 1.7974 -7.0642 0
M  V30 38 H 2.566 -1.5152 2.5289 0
M  V30 39 H 3.7979 0.7461 1.5696 0
M  V30 40 H 2.8266 2.103 0.9903 0
M  V30 41 H 0.6542 -2.7935 3.3017 0
M  V30 42 H -1.5395 -0.8688 2.6588 0
M  V30 43 H 4.3349 1.0176 -1.1003 0
M  V30 44 H 3.1888 0.2982 -2.2334 0
M  V30 45 H 2.7381 3.7769 -2.8239 0
M  V30 46 H 2.9998 2.2007 -3.5993 0
M  V30 47 H 4.2936 2.9453 -2.6032 0
M  V30 48 H -1.3715 -1.344 -3.1437 0
M  V30 49 H 0.6267 -3.6472 -3.1339 0
M  V30 50 H -0.9032 -3.612 -2.2507 0
M  V30 51 H -0.8774 -3.5526 -4.0338 0
M  V30 52 H -3.5924 1.265 7.1137 0
M  V30 53 H -3.9551 2.1662 2.6288 0
M  V30 54 H -3.0871 3.2814 3.736 0
M  V30 55 H -4.8373 3.018 3.918 0
M  V30 56 H -4.515 -3.5515 8.8166 0
M  V30 57 H -3.6048 -4.2204 7.5028 0
M  V30 58 H 0.6518 2.4433 -5.3001 0
M  V30 59 H 2.0223 3.0797 -7.2846 0
M  V30 60 H 2.9177 1.9928 -6.1996 0
M  V30 61 H 2.2336 1.3592 -7.6888 0
M  V30 62 H -0.5303 2.7936 -7.5059 0
M  V30 63 H -1.3565 1.5619 -6.5323 0
M  V30 64 H -0.3357 1.0625 -7.8715 0
M  V30 END ATOM
M  V30 BEGIN BOND
M  V30 1 1 1 2
M  V30 2 1 1 3
M  V30 3 1 2 4
M  V30 4 1 2 5
M  V30 5 1 3 6
M  V30 6 1 4 7
M  V30 7 1 4 8
M  V30 8 1 5 9
M  V30 9 1 6 10
M  V30 10 1 7 11
M  V30 11 2 8 12
M  V30 12 1 9 13
M  V30 13 1 10 14
M  V30 14 2 11 15
M  V30 15 1 11 16
M  V30 16 2 13 17
M  V30 17 1 13 18
M  V30 18 1 14 19
M  V30 19 1 16 20
M  V30 20 2 18 21
M  V30 21 1 18 22
M  V30 22 1 20 23
M  V30 23 1 20 24
M  V30 24 1 21 25
M  V30 25 1 22 26
M  V30 26 2 22 27
M  V30 27 1 23 28
M  V30 28 1 25 29
M  V30 29 2 26 30
M  V30 30 1 27 31
M  V30 31 2 28 32
M  V30 32 1 28 33
M  V30 33 1 30 34
M  V30 34 1 33 35
M  V30 35 1 35 36
M  V30 36 1 35 37
M  V30 37 1 5 8
M  V30 38 2 6 7
M  V30 39 1 30 31
M  V30 40 1 2 38
M  V30 41 1 3 39
M  V30 42 1 3 40
M  V30 43 1 5 41
M  V30 44 1 9 42
M  V30 45 1 10 43
M  V30 46 1 10 44
M  V30 47 1 19 45
M  V30 48 1 19 46
M  V30 49 1 19 47
M  V30 50 1 20 48
M  V30 51 1 24 49
M  V30 52 1 24 50
M  V30 53 1 24 51
M  V30 54 1 27 52
M  V30 55 1 29 53
M  V30 56 1 29 54
M  V30 57 1 29 55
M  V30 58 1 34 56
M  V30 59 1 34 57
M  V30 60 1 35 58
M  V30 61 1 36 59
M  V30 62 1 36 60
M  V30 63 1 36 61
M  V30 64 1 37 62
M  V30 65 1 37 63
M  V30 66 1 37 64
M  V30 END BOND
M  V30 BEGIN COLLECTION
M  V30 MDLV30/STEABS ATOMS=(3 2 5 20)
M  V30 END COLLECTION
M  V30 END CTAB
M  END
>  <level_0>
7369

>  <index>
7369

>  <NO.>
7370

>  <Name>
[(1s)-1-propan-2-yloxycarbonyloxyethyl] (6s,7s)-7-[[2-(2-amino-1,3-thiazol-4-yl)-2-methoxyiminoacetyl]amino]-3-(methoxymethyl)-8-oxo-5-thia-1-azabicyclo[4.2.0]oct-2-ene-2-carboxylate

>  <SMILES>
COCC1=C(C(=O)O[C@H](C)OC(=O)OC(C)C)N2C(=O)[C@H](NC(=O)C(=NOC)c3csc(N)n3)[C@@H]2SC1

>  <logBB>


>  <Class>
1

>  <MW>
557.13

>  <nHBAcc>
14

>  <nHBDon>
2

>  <SLogP>
0.83

>  <TopoPSA>
180.97

>  <MMFF94 Energy>
-0.049062

$$$$
COc1cc2c(cc1OC)[C@H](Cc1cc(OC)c(OC)c(OC)c1)[N@+](C)(CCCOC(=O)CC/C=C/CCC(=O)OCCC[N@+]1(C)CCc3cc(OC)c(OC)cc3[C@@H]1Cc1cc(OC)c(OC)c(OC)c1)CC2
Actelion Java MolfileCreator 2.0

  0  0  0  0  0  0              0 V3000
M  V30 BEGIN CTAB
M  V30 COUNTS 154 159 0 0 0
M  V30 BEGIN ATOM
M  V30 1 O -0.7129 -3.7274 -6.5101 0
M  V30 2 C -0.6156 -2.5384 -6.2511 0
M  V30 3 O -0.835 -1.5327 -7.1538 0
M  V30 4 C -0.2317 -1.9513 -4.9154 0
M  V30 5 C -1.2726 -1.9935 -8.442 0
M  V30 6 C -0.2829 -3.0076 -3.8141 0
M  V30 7 C -1.6724 -0.7698 -9.2633 0
M  V30 8 C 0.0298 -2.4143 -2.468 0
M  V30 9 C -0.4464 0.0579 -9.6555 0
M  V30 10 C 1.0771 -2.7831 -1.7135 0
M  V30 11 N -0.7852 1.5134 -10.0788 0 CHG=1 CFG=1
M  V30 12 C 1.3875 -2.1926 -0.3648 0
M  V30 13 C -1.5061 2.3567 -8.9561 0 CFG=2
M  V30 14 C 0.5452 2.2195 -10.419 0
M  V30 15 C -1.6819 1.4491 -11.3309 0
M  V30 16 C 1.3154 -3.2461 0.7387 0
M  V30 17 C -1.6653 3.8165 -9.3661 0
M  V30 18 C -0.7633 2.2704 -7.583 0
M  V30 19 C 0.3653 3.6654 -10.8883 0
M  V30 20 C 1.6385 -2.6485 2.0858 0
M  V30 21 C -0.731 4.4421 -10.2056 0
M  V30 22 C -2.7465 4.5668 -8.8645 0
M  V30 23 C -1.6297 2.6337 -6.3936 0
M  V30 24 O 1.9058 -1.4757 2.3008 0
M  V30 25 O 1.5885 -3.6179 3.0486 0
M  V30 26 C -0.8695 5.8099 -10.5002 0
M  V30 27 C -2.8748 5.93 -9.1463 0
M  V30 28 C -1.5518 3.9161 -5.8243 0
M  V30 29 C -2.5305 1.6935 -5.8644 0
M  V30 30 C 1.8907 -3.1398 4.3665 0
M  V30 31 C -1.9248 6.559 -9.9698 0
M  V30 32 O -3.8808 6.7285 -8.6673 0
M  V30 33 C -2.3829 4.2747 -4.7612 0
M  V30 34 C -3.356 2.0267 -4.7887 0
M  V30 35 C 1.7883 -4.3216 5.3311 0
M  V30 36 O -2.1203 7.8964 -10.1983 0
M  V30 37 C -4.8299 6.1617 -7.7736 0
M  V30 38 O -2.4041 5.51 -4.1706 0
M  V30 39 C -3.2658 3.3158 -4.2376 0
M  V30 40 O -4.2559 1.1773 -4.2017 0
M  V30 41 C 2.1013 -3.8715 6.7587 0
M  V30 42 C -1.198 8.5793 -11.0356 0
M  V30 43 C -1.7236 6.5709 -4.8292 0
M  V30 44 O -4.1331 3.6686 -3.2275 0
M  V30 45 C -4.5251 -0.0591 -4.8456 0
M  V30 46 N 2.097 -5.0164 7.804 0 CHG=1 CFG=1
M  V30 47 C -3.5087 3.4848 -1.9579 0
M  V30 48 C 2.1532 -4.4673 9.3071 0 CFG=2
M  V30 49 C 0.8204 -5.8799 7.7234 0
M  V30 50 C 3.2957 -5.9403 7.5573 0
M  V30 51 C 0.8227 -3.9037 9.8158 0
M  V30 52 C 3.4504 -3.6392 9.6223 0
M  V30 53 C -0.4397 -5.044 7.9226 0
M  V30 54 C -0.3868 -4.1786 9.1534 0
M  V30 55 C 0.7573 -3.1752 11.0229 0
M  V30 56 C 3.7083 -2.3214 8.9246 0
M  V30 57 C -1.5956 -3.6297 9.6233 0
M  V30 58 C -0.4451 -2.6327 11.4951 0
M  V30 59 C 2.7998 -1.2573 8.9487 0
M  V30 60 C 4.9141 -2.141 8.23 0
M  V30 61 C -1.6319 -2.8496 10.7793 0
M  V30 62 O -0.5588 -1.8692 12.628 0
M  V30 63 C 3.0599 -0.0653 8.2586 0
M  V30 64 C 5.1953 -0.9668 7.5158 0
M  V30 65 O -2.7612 -2.2687 11.293 0
M  V30 66 C 0.5771 -1.7222 13.4678 0
M  V30 67 O 2.1644 0.9715 8.1829 0
M  V30 68 C 4.2689 0.0839 7.5453 0
M  V30 69 O 6.3943 -1.0453 6.8605 0
M  V30 70 C -4.0017 -2.5226 10.6487 0
M  V30 71 C 1.0887 0.9978 9.115 0
M  V30 72 O 4.5112 1.2246 6.8214 0
M  V30 73 C 6.8202 0.0525 6.0658 0
M  V30 74 C 4.6146 2.3878 7.647 0
M  V30 75 H -0.9317 -1.14 -4.6818 0
M  V30 76 H 0.7775 -1.5336 -5.002 0
M  V30 77 H -2.1471 -2.6438 -8.3218 0
M  V30 78 H -0.4647 -2.548 -8.9325 0
M  V30 79 H -1.284 -3.4547 -3.7714 0
M  V30 80 H 0.4108 -3.8244 -4.0496 0
M  V30 81 H -2.1911 -1.1061 -10.1678 0
M  V30 82 H -2.3796 -0.1833 -8.672 0
M  V30 83 H -0.658 -1.655 -2.0982 0
M  V30 84 H 0.049 -0.4093 -10.5163 0
M  V30 85 H 0.3022 0.1106 -8.8605 0
M  V30 86 H 1.7648 -3.5441 -2.0795 0
M  V30 87 H 0.7011 -1.3673 -0.1362 0
M  V30 88 H 2.3936 -1.7564 -0.4007 0
M  V30 89 H -2.5066 1.916 -8.875 0
M  V30 90 H 1.1632 2.1868 -9.5146 0
M  V30 91 H 1.0494 1.626 -11.191 0
M  V30 92 H -1.8641 2.4525 -11.7192 0
M  V30 93 H -2.6351 0.9923 -11.0527 0
M  V30 94 H -1.1689 0.8456 -12.0854 0
M  V30 95 H 0.3068 -3.6727 0.7863 0
M  V30 96 H 2.0338 -4.0497 0.5391 0
M  V30 97 H -0.4 1.2617 -7.3756 0
M  V30 98 H 0.1302 2.9082 -7.5843 0
M  V30 99 H 0.1515 3.6595 -11.965 0
M  V30 100 H 1.3195 4.1911 -10.7596 0
M  V30 101 H -3.4793 4.0751 -8.2294 0
M  V30 102 H -0.1424 6.2752 -11.1608 0
M  V30 103 H -0.8457 4.633 -6.2344 0
M  V30 104 H -2.5683 0.6987 -6.295 0
M  V30 105 H 1.1713 -2.3619 4.6491 0
M  V30 106 H 2.9066 -2.7274 4.3822 0
M  V30 107 H 0.7829 -4.7461 5.2474 0
M  V30 108 H 2.4781 -5.1052 4.9994 0
M  V30 109 H -5.4099 5.3741 -8.2654 0
M  V30 110 H -5.5256 6.9529 -7.4778 0
M  V30 111 H -4.3458 5.7877 -6.8663 0
M  V30 112 H 1.3894 -3.1105 7.0912 0
M  V30 113 H 3.1062 -3.4521 6.7567 0
M  V30 114 H -0.1898 8.5602 -10.6091 0
M  V30 115 H -1.5133 9.6253 -11.0987 0
M  V30 116 H -1.2068 8.1667 -12.0498 0
M  V30 117 H -0.64 6.4211 -4.7908 0
M  V30 118 H -1.9511 7.4977 -4.2937 0
M  V30 119 H -2.0694 6.6883 -5.8614 0
M  V30 120 H -4.8642 0.0939 -5.8756 0
M  V30 121 H -5.333 -0.554 -4.2981 0
M  V30 122 H -3.6495 -0.7154 -4.8128 0
M  V30 123 H -3.2061 2.4421 -1.8103 0
M  V30 124 H -4.2415 3.7361 -1.1852 0
M  V30 125 H -2.6472 4.1496 -1.8347 0
M  V30 126 H 2.269 -5.3902 9.8965 0
M  V30 127 H 0.9063 -6.6479 8.5032 0
M  V30 128 H 0.8083 -6.3922 6.7557 0
M  V30 129 H 3.1353 -6.4833 6.6223 0
M  V30 130 H 4.2029 -5.336 7.4855 0
M  V30 131 H 3.3665 -6.6502 8.3864 0
M  V30 132 H 3.5103 -3.4402 10.6994 0
M  V30 133 H 4.3097 -4.2986 9.4448 0
M  V30 134 H -0.6263 -4.4031 7.0541 0
M  V30 135 H -1.2907 -5.7325 7.9992 0
M  V30 136 H 1.6604 -3.0102 11.6005 0
M  V30 137 H -2.5084 -3.8327 9.0688 0
M  V30 138 H 1.8704 -1.3554 9.4936 0
M  V30 139 H 5.6633 -2.9328 8.2135 0
M  V30 140 H 0.9369 -2.6942 13.8209 0
M  V30 141 H 0.2741 -1.1402 14.3434 0
M  V30 142 H 1.3715 -1.1678 12.9575 0
M  V30 143 H -4.0038 -2.1235 9.6292 0
M  V30 144 H -4.7841 -2.0038 11.2112 0
M  V30 145 H -4.2388 -3.5915 10.6557 0
M  V30 146 H 0.356 0.2176 8.8848 0
M  V30 147 H 0.5865 1.9651 9.0178 0
M  V30 148 H 1.45 0.9109 10.1453 0
M  V30 149 H 6.1227 0.2451 5.2449 0
M  V30 150 H 7.7798 -0.2209 5.6157 0
M  V30 151 H 6.9942 0.9412 6.6796 0
M  V30 152 H 3.6581 2.9177 7.6742 0
M  V30 153 H 5.3501 3.0556 7.1878 0
M  V30 154 H 4.9567 2.1596 8.6633 0
M  V30 END ATOM
M  V30 BEGIN BOND
M  V30 1 2 1 2
M  V30 2 1 2 3
M  V30 3 1 2 4
M  V30 4 1 3 5
M  V30 5 1 4 6
M  V30 6 1 5 7
M  V30 7 1 6 8
M  V30 8 1 7 9
M  V30 9 2 8 10
M  V30 10 1 9 11
M  V30 11 1 10 12
M  V30 12 1 11 13
M  V30 13 1 11 14
M  V30 14 1 11 15
M  V30 15 1 12 16
M  V30 16 1 13 17
M  V30 17 1 13 18
M  V30 18 1 14 19
M  V30 19 1 16 20
M  V30 20 2 17 21
M  V30 21 1 17 22
M  V30 22 1 18 23
M  V30 23 2 20 24
M  V30 24 1 20 25
M  V30 25 1 21 26
M  V30 26 2 22 27
M  V30 27 2 23 28
M  V30 28 1 23 29
M  V30 29 1 25 30
M  V30 30 2 26 31
M  V30 31 1 27 32
M  V30 32 1 28 33
M  V30 33 2 29 34
M  V30 34 1 30 35
M  V30 35 1 31 36
M  V30 36 1 32 37
M  V30 37 1 33 38
M  V30 38 2 33 39
M  V30 39 1 34 40
M  V30 40 1 35 41
M  V30 41 1 36 42
M  V30 42 1 38 43
M  V30 43 1 39 44
M  V30 44 1 40 45
M  V30 45 1 41 46
M  V30 46 1 44 47
M  V30 47 1 46 48
M  V30 48 1 46 49
M  V30 49 1 46 50
M  V30 50 1 48 51
M  V30 51 1 48 52
M  V30 52 1 49 53
M  V30 53 2 51 54
M  V30 54 1 51 55
M  V30 55 1 52 56
M  V30 56 1 54 57
M  V30 57 2 55 58
M  V30 58 2 56 59
M  V30 59 1 56 60
M  V30 60 2 57 61
M  V30 61 1 58 62
M  V30 62 1 59 63
M  V30 63 2 60 64
M  V30 64 1 61 65
M  V30 65 1 62 66
M  V30 66 1 63 67
M  V30 67 2 63 68
M  V30 68 1 64 69
M  V30 69 1 65 70
M  V30 70 1 67 71
M  V30 71 1 68 72
M  V30 72 1 69 73
M  V30 73 1 72 74
M  V30 74 1 19 21
M  V30 75 1 27 31
M  V30 76 1 34 39
M  V30 77 1 53 54
M  V30 78 1 58 61
M  V30 79 1 64 68
M  V30 80 1 4 75
M  V30 81 1 4 76
M  V30 82 1 5 77
M  V30 83 1 5 78
M  V30 84 1 6 79
M  V30 85 1 6 80
M  V30 86 1 7 81
M  V30 87 1 7 82
M  V30 88 1 8 83
M  V30 89 1 9 84
M  V30 90 1 9 85
M  V30 91 1 10 86
M  V30 92 1 12 87
M  V30 93 1 12 88
M  V30 94 1 13 89
M  V30 95 1 14 90
M  V30 96 1 14 91
M  V30 97 1 15 92
M  V30 98 1 15 93
M  V30 99 1 15 94
M  V30 100 1 16 95
M  V30 101 1 16 96
M  V30 102 1 18 97
M  V30 103 1 18 98
M  V30 104 1 19 99
M  V30 105 1 19 100
M  V30 106 1 22 101
M  V30 107 1 26 102
M  V30 108 1 28 103
M  V30 109 1 29 104
M  V30 110 1 30 105
M  V30 111 1 30 106
M  V30 112 1 35 107
M  V30 113 1 35 108
M  V30 114 1 37 109
M  V30 115 1 37 110
M  V30 116 1 37 111
M  V30 117 1 41 112
M  V30 118 1 41 113
M  V30 119 1 42 114
M  V30 120 1 42 115
M  V30 121 1 42 116
M  V30 122 1 43 117
M  V30 123 1 43 118
M  V30 124 1 43 119
M  V30 125 1 45 120
M  V30 126 1 45 121
M  V30 127 1 45 122
M  V30 128 1 47 123
M  V30 129 1 47 124
M  V30 130 1 47 125
M  V30 131 1 48 126
M  V30 132 1 49 127
M  V30 133 1 49 128
M  V30 134 1 50 129
M  V30 135 1 50 130
M  V30 136 1 50 131
M  V30 137 1 52 132
M  V30 138 1 52 133
M  V30 139 1 53 134
M  V30 140 1 53 135
M  V30 141 1 55 136
M  V30 142 1 57 137
M  V30 143 1 59 138
M  V30 144 1 60 139
M  V30 145 1 66 140
M  V30 146 1 66 141
M  V30 147 1 66 142
M  V30 148 1 70 143
M  V30 149 1 70 144
M  V30 150 1 70 145
M  V30 151 1 71 146
M  V30 152 1 71 147
M  V30 153 1 71 148
M  V30 154 1 73 149
M  V30 155 1 73 150
M  V30 156 1 73 151
M  V30 157 1 74 152
M  V30 158 1 74 153
M  V30 159 1 74 154
M  V30 END BOND
M  V30 BEGIN COLLECTION
M  V30 MDLV30/STEABS ATOMS=(4 11 13 46 48)
M  V30 END COLLECTION
M  V30 END CTAB
M  END
>  <level_0>
7411

>  <index>
7411

>  <NO.>
7412

>  <Name>


>  <SMILES>
COc1cc2c(cc1OC)[C@H](Cc1cc(OC)c(OC)c(OC)c1)[N@+](C)(CCCOC(=O)CC/C=C/CCC(=O)OCCC[N@+]1(C)CCc3cc(OC)c(OC)cc3[C@@H]1Cc1cc(OC)c(OC)c(OC)c1)CC2

>  <logBB>


>  <Class>
-1

>  <MW>
1028.56

>  <nHBAcc>
14

>  <nHBDon>
0

>  <SLogP>
9.03

>  <TopoPSA>
144.9

>  <MMFF94 Energy>
318.5

$$$$
COc1cc2c3cc1Oc1cc(ccc1O)C[C@@H]1c4c(cc(OC)c(O)c4Oc4ccc(cc4)C[C@@H]3[N+](C)(C)CC2)CC[N+]1(C)C
Actelion Java MolfileCreator 2.0

  0  0  0  0  0  0              0 V3000
M  V30 BEGIN CTAB
M  V30 COUNTS 90 96 0 0 0
M  V30 BEGIN ATOM
M  V30 1 O -3.0455 2.083 -0.4804 0
M  V30 2 C -3.0845 2.0239 0.9005 0
M  V30 3 C -2.6396 0.925 -1.1012 0
M  V30 4 C -4.3205 2.148 1.5457 0
M  V30 5 C -1.8983 1.9313 1.6357 0
M  V30 6 C -3.4843 -0.1724 -1.2301 0
M  V30 7 C -1.3694 0.8955 -1.6834 0
M  V30 8 O -5.4148 2.2292 0.7254 0
M  V30 9 C -4.352 2.1547 2.9406 0
M  V30 10 C -1.9246 1.9216 3.04 0
M  V30 11 O -4.7669 -0.1746 -0.7684 0
M  V30 12 C -3.0402 -1.3185 -1.8746 0
M  V30 13 C -0.8969 -0.2576 -2.3411 0
M  V30 14 C -6.6793 2.4664 1.3378 0
M  V30 15 C -3.1653 2.0443 3.6942 0
M  V30 16 C -0.6233 1.7713 3.8215 0 CFG=1
M  V30 17 C -1.7533 -1.365 -2.4221 0
M  V30 18 C 0.5139 -0.2035 -2.9018 0
M  V30 19 C -3.2626 2.1721 5.1953 0
M  V30 20 N -0.728 2.4423 5.2406 0 CHG=1
M  V30 21 C -0.2115 0.2689 3.9142 0
M  V30 22 C 1.1662 -1.5188 -3.4375 0 CFG=1
M  V30 23 C -1.9683 1.9031 5.9633 0
M  V30 24 C 0.5051 2.1734 6.1063 0
M  V30 25 C -0.8093 3.9709 5.0779 0
M  V30 26 C 0.2446 -0.3696 2.6167 0
M  V30 27 N 1.1934 -1.5844 -5.0085 0 CHG=1
M  V30 28 C 2.5541 -1.6831 -2.8247 0
M  V30 29 C 1.4181 0.0509 1.9756 0
M  V30 30 C -0.4711 -1.4417 2.0694 0
M  V30 31 C 2.2745 -0.6357 -5.5385 0
M  V30 32 C 1.4764 -3.0322 -5.4519 0
M  V30 33 C -0.1538 -1.2078 -5.6334 0
M  V30 34 C 2.6845 -2.1339 -1.4942 0
M  V30 35 C 3.719 -1.3884 -3.5569 0
M  V30 36 C 1.8712 -0.5926 0.8167 0
M  V30 37 C -0.007 -2.0938 0.9238 0
M  V30 38 C 3.6667 -0.9797 -5.0086 0
M  V30 39 O 1.5377 -2.4446 -0.7961 0
M  V30 40 C 3.9501 -2.3661 -0.9415 0
M  V30 41 C 4.9842 -1.5669 -2.9617 0
M  V30 42 C 1.1728 -1.6848 0.2989 0
M  V30 43 O 4.079 -2.9044 0.3125 0
M  V30 44 C 5.1099 -2.0592 -1.6601 0
M  V30 45 O 6.295 -2.2823 -1.0147 0
M  V30 46 C 7.501 -2.0752 -1.7376 0
M  V30 47 H -0.9542 1.8681 1.1005 0
M  V30 48 H -0.7425 1.7822 -1.6088 0
M  V30 49 H -5.2956 2.2563 3.472 0
M  V30 50 H -4.9878 0.7367 -0.4886 0
M  V30 51 H -3.7057 -2.175 -1.9603 0
M  V30 52 H -6.9707 1.6226 1.9714 0
M  V30 53 H -7.4235 2.5584 0.541 0
M  V30 54 H -6.6751 3.4045 1.9024 0
M  V30 55 H 0.1663 2.3387 3.3121 0
M  V30 56 H -1.4718 -2.294 -2.906 0
M  V30 57 H 0.5326 0.5851 -3.661 0
M  V30 58 H 1.1361 0.1937 -2.0877 0
M  V30 59 H -4.0363 1.4912 5.5708 0
M  V30 60 H -3.5995 3.1919 5.4227 0
M  V30 61 H -1.039 -0.3198 4.3299 0
M  V30 62 H 0.6285 0.132 4.602 0
M  V30 63 H 0.5866 -2.4005 -3.1504 0
M  V30 64 H -1.82 0.8261 6.0988 0
M  V30 65 H -2.0048 2.3642 6.9575 0
M  V30 66 H 1.397 2.3926 5.5128 0
M  V30 67 H 0.4598 2.8248 6.985 0
M  V30 68 H 0.4935 1.1324 6.438 0
M  V30 69 H -0.9577 4.4131 6.0678 0
M  V30 70 H -1.6401 4.2371 4.422 0
M  V30 71 H 0.1334 4.3161 4.6428 0
M  V30 72 H 2.0197 0.8617 2.3822 0
M  V30 73 H -1.3874 -1.8005 2.5364 0
M  V30 74 H 2.2556 -0.682 -6.6337 0
M  V30 75 H 1.9935 0.3796 -5.2398 0
M  V30 76 H 2.3958 -3.3926 -4.9868 0
M  V30 77 H 0.6336 -3.6557 -5.1378 0
M  V30 78 H 1.5737 -3.0429 -6.5415 0
M  V30 79 H -0.9257 -1.8545 -5.2104 0
M  V30 80 H -0.3688 -0.1553 -5.4399 0
M  V30 81 H -0.0841 -1.3663 -6.7144 0
M  V30 82 H 2.7958 -0.2399 0.3673 0
M  V30 83 H -0.5707 -2.9372 0.5295 0
M  V30 84 H 4.0808 -1.8021 -5.6056 0
M  V30 85 H 4.3197 -0.1125 -5.1671 0
M  V30 86 H 5.8705 -1.3391 -3.5498 0
M  V30 87 H 3.2199 -3.2619 0.5929 0
M  V30 88 H 7.5521 -2.7274 -2.6154 0
M  V30 89 H 8.3353 -2.3354 -1.0791 0
M  V30 90 H 7.6138 -1.0232 -2.0193 0
M  V30 END ATOM
M  V30 BEGIN BOND
M  V30 1 1 1 2
M  V30 2 1 1 3
M  V30 3 2 2 4
M  V30 4 1 2 5
M  V30 5 2 3 6
M  V30 6 1 3 7
M  V30 7 1 4 8
M  V30 8 1 4 9
M  V30 9 2 5 10
M  V30 10 1 6 11
M  V30 11 1 6 12
M  V30 12 2 7 13
M  V30 13 1 8 14
M  V30 14 2 9 15
M  V30 15 1 10 16
M  V30 16 2 12 17
M  V30 17 1 13 18
M  V30 18 1 15 19
M  V30 19 1 16 20
M  V30 20 1 16 21
M  V30 21 1 18 22
M  V30 22 1 19 23
M  V30 23 1 20 24
M  V30 24 1 20 25
M  V30 25 1 21 26
M  V30 26 1 22 27
M  V30 27 1 22 28
M  V30 28 2 26 29
M  V30 29 1 26 30
M  V30 30 1 27 31
M  V30 31 1 27 32
M  V30 32 1 27 33
M  V30 33 2 28 34
M  V30 34 1 28 35
M  V30 35 1 29 36
M  V30 36 2 30 37
M  V30 37 1 31 38
M  V30 38 1 34 39
M  V30 39 1 34 40
M  V30 40 2 35 41
M  V30 41 2 36 42
M  V30 42 1 40 43
M  V30 43 2 40 44
M  V30 44 1 44 45
M  V30 45 1 45 46
M  V30 46 1 10 15
M  V30 47 1 13 17
M  V30 48 1 20 23
M  V30 49 1 35 38
M  V30 50 1 37 42
M  V30 51 1 39 42
M  V30 52 1 41 44
M  V30 53 1 5 47
M  V30 54 1 7 48
M  V30 55 1 9 49
M  V30 56 1 11 50
M  V30 57 1 12 51
M  V30 58 1 14 52
M  V30 59 1 14 53
M  V30 60 1 14 54
M  V30 61 1 16 55
M  V30 62 1 17 56
M  V30 63 1 18 57
M  V30 64 1 18 58
M  V30 65 1 19 59
M  V30 66 1 19 60
M  V30 67 1 21 61
M  V30 68 1 21 62
M  V30 69 1 22 63
M  V30 70 1 23 64
M  V30 71 1 23 65
M  V30 72 1 24 66
M  V30 73 1 24 67
M  V30 74 1 24 68
M  V30 75 1 25 69
M  V30 76 1 25 70
M  V30 77 1 25 71
M  V30 78 1 29 72
M  V30 79 1 30 73
M  V30 80 1 31 74
M  V30 81 1 31 75
M  V30 82 1 32 76
M  V30 83 1 32 77
M  V30 84 1 32 78
M  V30 85 1 33 79
M  V30 86 1 33 80
M  V30 87 1 33 81
M  V30 88 1 36 82
M  V30 89 1 37 83
M  V30 90 1 38 84
M  V30 91 1 38 85
M  V30 92 1 41 86
M  V30 93 1 43 87
M  V30 94 1 46 88
M  V30 95 1 46 89
M  V30 96 1 46 90
M  V30 END BOND
M  V30 BEGIN COLLECTION
M  V30 MDLV30/STEABS ATOMS=(2 16 22)
M  V30 END COLLECTION
M  V30 END CTAB
M  END
>  <level_0>
7412

>  <index>
7412

>  <NO.>
7413

>  <Name>
ac1mmxuk

>  <SMILES>
COc1cc2c3cc1Oc1cc(ccc1O)C[C@@H]1c4c(cc(OC)c(O)c4Oc4ccc(cc4)C[C@@H]3[N+](C)(C)CC2)CC[N+]1(C)C

>  <logBB>


>  <Class>
-1

>  <MW>
624.32

>  <nHBAcc>
6

>  <nHBDon>
2

>  <SLogP>
6.85

>  <TopoPSA>
77.38

>  <MMFF94 Energy>
259.42

$$$$
COc1ccc(CCN(C)CCC[C@](C#N)(c2cc(OC)c(OC)c(OC)c2)C(C)C)cc1OC
Actelion Java MolfileCreator 2.0

  0  0  0  0  0  0              0 V3000
M  V30 BEGIN CTAB
M  V30 COUNTS 75 76 0 0 0
M  V30 BEGIN ATOM
M  V30 1 O -1.8879 5.7512 -1.6518 0
M  V30 2 C -2.1758 4.6408 -0.8953 0
M  V30 3 C -2.2625 6.93 -0.938 0
M  V30 4 C -3.4464 4.0542 -0.9866 0
M  V30 5 C -1.2017 4.0785 -0.0663 0
M  V30 6 O -4.332 4.6537 -1.8463 0
M  V30 7 C -3.7463 2.9407 -0.1888 0
M  V30 8 O 0.0738 4.5549 0.0926 0
M  V30 9 C -1.5245 2.9789 0.7357 0
M  V30 10 C -5.4991 3.9198 -2.1942 0
M  V30 11 C -2.7941 2.3738 0.6883 0
M  V30 12 C 0.7476 4.8182 -1.1371 0
M  V30 13 C -3.1395 1.1586 1.5846 0 CFG=2
M  V30 14 C -4.2858 0.3628 1.0327 0
M  V30 15 C -3.575 1.6297 3.0378 0
M  V30 16 C -1.9435 0.1424 1.695 0
M  V30 17 N -5.1782 -0.2531 0.6158 0
M  V30 18 C -2.4578 2.2439 3.8943 0
M  V30 19 C -4.7716 2.5998 3.0426 0
M  V30 20 C -1.4748 -0.4698 0.3581 0
M  V30 21 C -0.3107 -1.4487 0.5839 0
M  V30 22 N 0.2927 -1.9348 -0.6723 0
M  V30 23 C 1.552 -2.6515 -0.3685 0
M  V30 24 C -0.6368 -2.7933 -1.4146 0
M  V30 25 C 2.4167 -2.9326 -1.6103 0
M  V30 26 C 3.7542 -3.5271 -1.2312 0
M  V30 27 C 3.8907 -4.9112 -1.0467 0
M  V30 28 C 4.8637 -2.7012 -1.0302 0
M  V30 29 C 5.1213 -5.4674 -0.6749 0
M  V30 30 C 6.0949 -3.246 -0.658 0
M  V30 31 O 5.3371 -6.8089 -0.4742 0
M  V30 32 C 6.2344 -4.6258 -0.478 0
M  V30 33 C 4.2574 -7.6957 -0.7257 0
M  V30 34 O 7.4034 -5.2463 -0.1117 0
M  V30 35 C 8.553 -4.4322 0.0659 0
M  V30 36 H -3.3421 6.9646 -0.7566 0
M  V30 37 H -1.9969 7.7926 -1.5564 0
M  V30 38 H -1.7155 7.0119 0.0078 0
M  V30 39 H -4.7462 2.5186 -0.2324 0
M  V30 40 H -0.7469 2.6044 1.397 0
M  V30 41 H -5.2491 2.9205 -2.5661 0
M  V30 42 H -6.0036 4.4587 -3.0019 0
M  V30 43 H -6.1918 3.8664 -1.3483 0
M  V30 44 H 0.4405 4.1408 -1.942 0
M  V30 45 H 1.8177 4.6649 -0.9661 0
M  V30 46 H 0.6088 5.8628 -1.4297 0
M  V30 47 H -3.909 0.7318 3.5798 0
M  V30 48 H -2.2382 -0.6814 2.361 0
M  V30 49 H -1.0755 0.6104 2.1704 0
M  V30 50 H -1.62 1.5558 4.0306 0
M  V30 51 H -2.835 2.4772 4.897 0
M  V30 52 H -2.0804 3.1777 3.4688 0
M  V30 53 H -4.5063 3.5734 2.6183 0
M  V30 54 H -5.6242 2.2006 2.4856 0
M  V30 55 H -5.1137 2.7753 4.069 0
M  V30 56 H -2.3114 -0.992 -0.1154 0
M  V30 57 H -1.1512 0.3207 -0.3274 0
M  V30 58 H 0.4549 -0.9105 1.1577 0
M  V30 59 H -0.643 -2.2893 1.207 0
M  V30 60 H 1.343 -3.5862 0.1694 0
M  V30 61 H 2.1543 -2.0329 0.3109 0
M  V30 62 H -0.2015 -3.1286 -2.3606 0
M  V30 63 H -0.9296 -3.6774 -0.8374 0
M  V30 64 H -1.543 -2.2493 -1.6978 0
M  V30 65 H 1.9142 -3.6232 -2.297 0
M  V30 66 H 2.578 -2.005 -2.1744 0
M  V30 67 H 3.0172 -5.537 -1.1985 0
M  V30 68 H 4.7774 -1.6243 -1.161 0
M  V30 69 H 6.9258 -2.5639 -0.5145 0
M  V30 70 H 3.4267 -7.5109 -0.0366 0
M  V30 71 H 4.6137 -8.7151 -0.549 0
M  V30 72 H 3.9289 -7.6352 -1.7685 0
M  V30 73 H 8.8229 -3.9199 -0.8633 0
M  V30 74 H 9.387 -5.0861 0.3384 0
M  V30 75 H 8.4094 -3.7194 0.8847 0
M  V30 END ATOM
M  V30 BEGIN BOND
M  V30 1 1 1 2
M  V30 2 1 1 3
M  V30 3 2 2 4
M  V30 4 1 2 5
M  V30 5 1 4 6
M  V30 6 1 4 7
M  V30 7 1 5 8
M  V30 8 2 5 9
M  V30 9 1 6 10
M  V30 10 2 7 11
M  V30 11 1 8 12
M  V30 12 1 11 13
M  V30 13 1 13 14
M  V30 14 1 13 15
M  V30 15 1 13 16
M  V30 16 3 14 17
M  V30 17 1 15 18
M  V30 18 1 15 19
M  V30 19 1 16 20
M  V30 20 1 20 21
M  V30 21 1 21 22
M  V30 22 1 22 23
M  V30 23 1 22 24
M  V30 24 1 23 25
M  V30 25 1 25 26
M  V30 26 2 26 27
M  V30 27 1 26 28
M  V30 28 1 27 29
M  V30 29 2 28 30
M  V30 30 1 29 31
M  V30 31 2 29 32
M  V30 32 1 31 33
M  V30 33 1 32 34
M  V30 34 1 34 35
M  V30 35 1 9 11
M  V30 36 1 30 32
M  V30 37 1 3 36
M  V30 38 1 3 37
M  V30 39 1 3 38
M  V30 40 1 7 39
M  V30 41 1 9 40
M  V30 42 1 10 41
M  V30 43 1 10 42
M  V30 44 1 10 43
M  V30 45 1 12 44
M  V30 46 1 12 45
M  V30 47 1 12 46
M  V30 48 1 15 47
M  V30 49 1 16 48
M  V30 50 1 16 49
M  V30 51 1 18 50
M  V30 52 1 18 51
M  V30 53 1 18 52
M  V30 54 1 19 53
M  V30 55 1 19 54
M  V30 56 1 19 55
M  V30 57 1 20 56
M  V30 58 1 20 57
M  V30 59 1 21 58
M  V30 60 1 21 59
M  V30 61 1 23 60
M  V30 62 1 23 61
M  V30 63 1 24 62
M  V30 64 1 24 63
M  V30 65 1 24 64
M  V30 66 1 25 65
M  V30 67 1 25 66
M  V30 68 1 27 67
M  V30 69 1 28 68
M  V30 70 1 30 69
M  V30 71 1 33 70
M  V30 72 1 33 71
M  V30 73 1 33 72
M  V30 74 1 35 73
M  V30 75 1 35 74
M  V30 76 1 35 75
M  V30 END BOND
M  V30 BEGIN COLLECTION
M  V30 MDLV30/STEABS ATOMS=(1 13)
M  V30 END COLLECTION
M  V30 END CTAB
M  END
>  <level_0>
7417

>  <index>
7417

>  <NO.>
7418

>  <Name>
(r)-gallopamil

>  <SMILES>
COc1ccc(CCN(C)CCC[C@](C#N)(c2cc(OC)c(OC)c(OC)c2)C(C)C)cc1OC

>  <logBB>


>  <Class>
1

>  <MW>
484.29

>  <nHBAcc>
7

>  <nHBDon>
0

>  <SLogP>
5.1

>  <TopoPSA>
73.18

>  <MMFF94 Energy>
154.81

$$$$
COc1ccc(C[C@H]2c3cc(OC)c(OC)cc3CC[N@@+]2(C)CCC(=O)OCCCCCOC(=O)CC[N@+]2(C)CCc3cc(OC)c(OC)cc3[C@@H]2Cc2ccc(OC)c(OC)c2)cc1OC
Actelion Java MolfileCreator 2.0

  0  0  0  0  0  0              0 V3000
M  V30 BEGIN CTAB
M  V30 COUNTS 139 144 0 0 0
M  V30 BEGIN ATOM
M  V30 1 O -3.0965 0.9519 -3.8917 0
M  V30 2 C -3.7507 0.9598 -2.8596 0
M  V30 3 O -3.2555 0.8134 -1.6027 0
M  V30 4 C -5.2456 1.1437 -2.813 0
M  V30 5 C -1.8298 0.6378 -1.5479 0
M  V30 6 C -5.7632 1.25 -4.248 0
M  V30 7 C -1.413 0.4983 -0.0859 0
M  V30 8 N -7.312 1.3546 -4.3767 0 CHG=1 CFG=1
M  V30 9 C 0.097 0.3046 0.0506 0
M  V30 10 C -7.7136 1.8017 -5.8543 0 CFG=2
M  V30 11 C -7.9668 -0.0076 -4.105 0
M  V30 12 C -7.8279 2.4305 -3.4027 0
M  V30 13 C 0.523 0.1652 1.5122 0
M  V30 14 C -9.2271 1.7882 -6.0429 0
M  V30 15 C -7.0258 0.9227 -6.9494 0
M  V30 16 C -9.4915 0.0233 -4.2297 0
M  V30 17 C 2.0312 -0.0339 1.6392 0
M  V30 18 C -10.0411 0.891 -5.3326 0
M  V30 19 C -9.8256 2.6754 -6.9582 0
M  V30 20 C -7.0665 1.5338 -8.3345 0
M  V30 21 O 2.361 -0.1588 3.0328 0
M  V30 22 C -11.4269 0.8702 -5.5715 0
M  V30 23 C -11.202 2.6436 -7.2034 0
M  V30 24 C -8.0133 1.1 -9.2763 0
M  V30 25 C -6.1764 2.5549 -8.6855 0
M  V30 26 C 3.6816 -0.3692 3.2752 0
M  V30 27 C -12.0113 1.7325 -6.504 0
M  V30 28 O -11.8465 3.4742 -8.0832 0
M  V30 29 C -8.0933 1.6979 -10.5394 0
M  V30 30 C -6.2374 3.1427 -9.9516 0
M  V30 31 O 4.5592 -0.4491 2.429 0
M  V30 32 C 3.9264 -0.4935 4.7568 0
M  V30 33 O -13.3502 1.7724 -6.7936 0
M  V30 34 C -11.0608 4.1627 -9.0479 0
M  V30 35 O -9.0089 1.3543 -11.5011 0
M  V30 36 C -7.1912 2.7231 -10.883 0
M  V30 37 C 5.4128 -0.7749 4.9801 0
M  V30 38 C -14.2036 0.8245 -6.1683 0
M  V30 39 C -10.048 0.4535 -11.1447 0
M  V30 40 O -7.3397 3.2623 -12.1352 0
M  V30 41 N 5.8467 -0.8324 6.4753 0 CHG=1 CFG=1
M  V30 42 C -6.3328 4.1509 -12.599 0
M  V30 43 C 7.303 -1.4689 6.6004 0 CFG=2
M  V30 44 C 5.8987 0.5805 7.0737 0
M  V30 45 C 4.8717 -1.7368 7.2513 0
M  V30 46 C 7.8146 -1.4082 8.036 0
M  V30 47 C 8.3322 -0.7988 5.632 0
M  V30 48 C 6.3331 0.5958 8.5408 0
M  V30 49 C 7.4126 -0.3875 8.912 0
M  V30 50 C 8.7235 -2.3818 8.4928 0
M  V30 51 C 9.6124 -1.5874 5.4665 0
M  V30 52 C 7.9469 -0.337 10.212 0
M  V30 53 C 9.2627 -2.3235 9.7816 0
M  V30 54 C 9.6126 -2.8024 4.7718 0
M  V30 55 C 10.8116 -1.1366 6.0216 0
M  V30 56 C 8.8725 -1.2895 10.6497 0
M  V30 57 O 10.1585 -3.2311 10.285 0
M  V30 58 C 10.7784 -3.5732 4.6478 0
M  V30 59 C 11.976 -1.9052 5.9141 0
M  V30 60 O 9.4369 -1.308 11.8986 0
M  V30 61 C 10.7528 -4.1564 9.3843 0
M  V30 62 O 10.5628 -4.7399 3.9597 0
M  V30 63 C 11.9726 -3.1363 5.2446 0
M  V30 64 C 9.1461 -0.2363 12.7845 0
M  V30 65 C 11.6766 -5.3039 3.2751 0
M  V30 66 O 13.0634 -3.9576 5.1704 0
M  V30 67 C 14.2827 -3.5169 5.7558 0
M  V30 68 H -5.6827 0.284 -2.2976 0
M  V30 69 H -5.4483 2.0592 -2.2493 0
M  V30 70 H -1.3392 1.5096 -1.9967 0
M  V30 71 H -1.5549 -0.2653 -2.1052 0
M  V30 72 H -5.4605 0.3581 -4.8061 0
M  V30 73 H -5.3513 2.1393 -4.7403 0
M  V30 74 H -1.7343 1.3881 0.4697 0
M  V30 75 H -1.9473 -0.3472 0.3648 0
M  V30 76 H 0.6173 1.1579 -0.4014 0
M  V30 77 H 0.4019 -0.59 -0.5057 0
M  V30 78 H -7.3498 2.8355 -5.9261 0
M  V30 79 H -7.5363 -0.7202 -4.8166 0
M  V30 80 H -7.6803 -0.3264 -3.0975 0
M  V30 81 H -7.2284 3.334 -3.5485 0
M  V30 82 H -7.7238 2.0509 -2.3827 0
M  V30 83 H -8.8791 2.6507 -3.5959 0
M  V30 84 H 0.0045 -0.6806 1.9805 0
M  V30 85 H 0.2246 1.054 2.082 0
M  V30 86 H -5.9658 0.7623 -6.7353 0
M  V30 87 H -7.4775 -0.0767 -6.9849 0
M  V30 88 H -9.8492 -1.0053 -4.3607 0
M  V30 89 H -9.9099 0.3865 -3.2816 0
M  V30 90 H 2.3347 -0.9452 1.1106 0
M  V30 91 H 2.5615 0.8283 1.2183 0
M  V30 92 H -9.201 3.3901 -7.4883 0
M  V30 93 H -12.0428 0.1798 -5.0009 0
M  V30 94 H -8.6965 0.3005 -9.0048 0
M  V30 95 H -5.4172 2.9041 -7.9889 0
M  V30 96 H -5.5299 3.9327 -10.184 0
M  V30 97 H 3.6222 0.4418 5.2345 0
M  V30 98 H 3.3101 -1.3186 5.1264 0
M  V30 99 H -10.4622 4.9473 -8.5745 0
M  V30 100 H -11.7441 4.6453 -9.7532 0
M  V30 101 H -10.4297 3.4722 -9.6146 0
M  V30 102 H 6.0064 0.0172 4.512 0
M  V30 103 H 5.6897 -1.7403 4.5393 0
M  V30 104 H -13.9074 -0.1995 -6.418 0
M  V30 105 H -15.2166 0.9814 -6.5512 0
M  V30 106 H -14.2301 0.9755 -5.0842 0
M  V30 107 H -9.6468 -0.5431 -10.9349 0
M  V30 108 H -10.7243 0.3668 -12.0005 0
M  V30 109 H -10.6298 0.8319 -10.2975 0
M  V30 110 H -6.3407 5.0838 -12.026 0
M  V30 111 H -6.5586 4.3985 -13.6406 0
M  V30 112 H -5.3445 3.68 -12.5747 0
M  V30 113 H 7.1555 -2.5194 6.3166 0
M  V30 114 H 6.5921 1.1659 6.4604 0
M  V30 115 H 4.9042 1.0275 6.9735 0
M  V30 116 H 3.9111 -1.2207 7.3304 0
M  V30 117 H 4.7685 -2.6755 6.6991 0
M  V30 118 H 5.2525 -1.9389 8.2538 0
M  V30 119 H 7.9283 -0.6925 4.6214 0
M  V30 120 H 8.5743 0.2163 5.9704 0
M  V30 121 H 5.4567 0.3798 9.1658 0
M  V30 122 H 6.6608 1.6117 8.794 0
M  V30 123 H 9.0146 -3.1867 7.8227 0
M  V30 124 H 7.6117 0.4508 10.8816 0
M  V30 125 H 8.7032 -3.1758 4.3049 0
M  V30 126 H 10.8588 -0.1952 6.5669 0
M  V30 127 H 12.8743 -1.5169 6.386 0
M  V30 128 H 10.0113 -4.87 9.011 0
M  V30 129 H 11.5098 -4.7216 9.9364 0
M  V30 130 H 11.2567 -3.6413 8.5604 0
M  V30 131 H 9.454 0.7243 12.3585 0
M  V30 132 H 9.7214 -0.3939 13.7018 0
M  V30 133 H 8.085 -0.2274 13.0543 0
M  V30 134 H 12.2814 -4.5426 2.7708 0
M  V30 135 H 11.2828 -5.9717 2.5023 0
M  V30 136 H 12.2771 -5.9149 3.9552 0
M  V30 137 H 14.6363 -2.5943 5.2841 0
M  V30 138 H 15.0359 -4.2906 5.579 0
M  V30 139 H 14.178 -3.396 6.839 0
M  V30 END ATOM
M  V30 BEGIN BOND
M  V30 1 2 1 2
M  V30 2 1 2 3
M  V30 3 1 2 4
M  V30 4 1 3 5
M  V30 5 1 4 6
M  V30 6 1 5 7
M  V30 7 1 6 8
M  V30 8 1 7 9
M  V30 9 1 8 10
M  V30 10 1 8 11
M  V30 11 1 8 12
M  V30 12 1 9 13
M  V30 13 1 10 14
M  V30 14 1 10 15
M  V30 15 1 11 16
M  V30 16 1 13 17
M  V30 17 2 14 18
M  V30 18 1 14 19
M  V30 19 1 15 20
M  V30 20 1 17 21
M  V30 21 1 18 22
M  V30 22 2 19 23
M  V30 23 2 20 24
M  V30 24 1 20 25
M  V30 25 1 21 26
M  V30 26 2 22 27
M  V30 27 1 23 28
M  V30 28 1 24 29
M  V30 29 2 25 30
M  V30 30 2 26 31
M  V30 31 1 26 32
M  V30 32 1 27 33
M  V30 33 1 28 34
M  V30 34 1 29 35
M  V30 35 2 29 36
M  V30 36 1 32 37
M  V30 37 1 33 38
M  V30 38 1 35 39
M  V30 39 1 36 40
M  V30 40 1 37 41
M  V30 41 1 40 42
M  V30 42 1 41 43
M  V30 43 1 41 44
M  V30 44 1 41 45
M  V30 45 1 43 46
M  V30 46 1 43 47
M  V30 47 1 44 48
M  V30 48 2 46 49
M  V30 49 1 46 50
M  V30 50 1 47 51
M  V30 51 1 49 52
M  V30 52 2 50 53
M  V30 53 2 51 54
M  V30 54 1 51 55
M  V30 55 2 52 56
M  V30 56 1 53 57
M  V30 57 1 54 58
M  V30 58 2 55 59
M  V30 59 1 56 60
M  V30 60 1 57 61
M  V30 61 1 58 62
M  V30 62 2 58 63
M  V30 63 1 60 64
M  V30 64 1 62 65
M  V30 65 1 63 66
M  V30 66 1 66 67
M  V30 67 1 16 18
M  V30 68 1 23 27
M  V30 69 1 30 36
M  V30 70 1 48 49
M  V30 71 1 53 56
M  V30 72 1 59 63
M  V30 73 1 4 68
M  V30 74 1 4 69
M  V30 75 1 5 70
M  V30 76 1 5 71
M  V30 77 1 6 72
M  V30 78 1 6 73
M  V30 79 1 7 74
M  V30 80 1 7 75
M  V30 81 1 9 76
M  V30 82 1 9 77
M  V30 83 1 10 78
M  V30 84 1 11 79
M  V30 85 1 11 80
M  V30 86 1 12 81
M  V30 87 1 12 82
M  V30 88 1 12 83
M  V30 89 1 13 84
M  V30 90 1 13 85
M  V30 91 1 15 86
M  V30 92 1 15 87
M  V30 93 1 16 88
M  V30 94 1 16 89
M  V30 95 1 17 90
M  V30 96 1 17 91
M  V30 97 1 19 92
M  V30 98 1 22 93
M  V30 99 1 24 94
M  V30 100 1 25 95
M  V30 101 1 30 96
M  V30 102 1 32 97
M  V30 103 1 32 98
M  V30 104 1 34 99
M  V30 105 1 34 100
M  V30 106 1 34 101
M  V30 107 1 37 102
M  V30 108 1 37 103
M  V30 109 1 38 104
M  V30 110 1 38 105
M  V30 111 1 38 106
M  V30 112 1 39 107
M  V30 113 1 39 108
M  V30 114 1 39 109
M  V30 115 1 42 110
M  V30 116 1 42 111
M  V30 117 1 42 112
M  V30 118 1 43 113
M  V30 119 1 44 114
M  V30 120 1 44 115
M  V30 121 1 45 116
M  V30 122 1 45 117
M  V30 123 1 45 118
M  V30 124 1 47 119
M  V30 125 1 47 120
M  V30 126 1 48 121
M  V30 127 1 48 122
M  V30 128 1 50 123
M  V30 129 1 52 124
M  V30 130 1 54 125
M  V30 131 1 55 126
M  V30 132 1 59 127
M  V30 133 1 61 128
M  V30 134 1 61 129
M  V30 135 1 61 130
M  V30 136 1 64 131
M  V30 137 1 64 132
M  V30 138 1 64 133
M  V30 139 1 65 134
M  V30 140 1 65 135
M  V30 141 1 65 136
M  V30 142 1 67 137
M  V30 143 1 67 138
M  V30 144 1 67 139
M  V30 END BOND
M  V30 BEGIN COLLECTION
M  V30 MDLV30/STEABS ATOMS=(4 8 10 41 43)
M  V30 END COLLECTION
M  V30 END CTAB
M  END
>  <level_0>
7418

>  <index>
7418

>  <NO.>
7419

>  <Name>
iso046

>  <SMILES>
COc1ccc(C[C@H]2c3cc(OC)c(OC)cc3CC[N@@+]2(C)CCC(=O)OCCCCCOC(=O)CC[N@+]2(C)CCc3cc(OC)c(OC)cc3[C@@H]2Cc2ccc(OC)c(OC)c2)cc1OC

>  <logBB>


>  <Class>
-1

>  <MW>
928.51

>  <nHBAcc>
12

>  <nHBDon>
0

>  <SLogP>
8.07

>  <TopoPSA>
126.44

>  <MMFF94 Energy>
266.54

$$$$
C[C@@H]1OC(=O)C[C@H](O)C[C@H](O)CC[C@@H](O)[C@H](O)C[C@H](O)C[C@@]2(O)C[C@@H](O)[C@@H](C(=O)O)[C@H](C[C@@](O)(O[C@@H]3O[C@@H](C)[C@@H](O)[C@H](N)[C@@H]3O)C=CC=CC=CC=CC=CC=CC=C[C@@H](C)[C@H](O)[C@@H]1C)O2
Actelion Java MolfileCreator 2.0

  0  0  0  0  0  0              0 V3000
M  V30 BEGIN CTAB
M  V30 COUNTS 139 141 0 0 0
M  V30 BEGIN ATOM
M  V30 1 O 3.9505 0.3945 -2.606 0
M  V30 2 C 3.7983 -0.0556 -1.4757 0
M  V30 3 O 4.3809 -1.1914 -1.0022 0
M  V30 4 C 2.9727 0.6058 -0.3976 0
M  V30 5 C 5.0902 -2.0072 -1.9606 0 CFG=2
M  V30 6 C 1.5184 0.8586 -0.8027 0 CFG=2
M  V30 7 C 5.0117 -3.4779 -1.4719 0 CFG=2
M  V30 8 C 6.4972 -1.4559 -2.1773 0
M  V30 9 O 0.8479 -0.4084 -0.8419 0
M  V30 10 C 1.2599 1.5929 -2.1238 0
M  V30 11 C 5.9319 -3.8841 -0.2832 0 CFG=1
M  V30 12 C 5.2435 -4.4313 -2.6582 0
M  V30 13 C 1.8335 3.0087 -2.288 0 CFG=2
M  V30 14 O 7.286 -3.9215 -0.7562 0
M  V30 15 C 5.8422 -3.0162 1.0071 0 CFG=1
M  V30 16 O 3.2443 3.0234 -2.1315 0
M  V30 17 C 1.1713 4.0604 -1.3794 0
M  V30 18 C 4.5105 -2.959 1.7307 0
M  V30 19 C 6.9003 -3.4481 2.0385 0
M  V30 20 C 1.8559 4.2873 -0.0267 0
M  V30 21 C 3.4535 -3.7733 1.5873 0
M  V30 22 C 1.0813 5.1713 0.9688 0 CFG=1
M  V30 23 C 2.2396 -3.5952 2.3536 0
M  V30 24 O 0.586 6.3308 0.3047 0
M  V30 25 C -0.0143 4.4637 1.811 0 CFG=2
M  V30 26 C 1.0491 -4.1821 2.1493 0
M  V30 27 O 0.5332 3.359 2.5473 0
M  V30 28 C -1.2755 3.9688 1.0906 0
M  V30 29 C 0.6965 -5.102 1.0888 0
M  V30 30 C -2.0838 5.0268 0.3274 0 CFG=2
M  V30 31 C -0.5249 -5.5887 0.8127 0
M  V30 32 O -2.1657 6.1984 1.1549 0
M  V30 33 C -3.5196 4.5676 0.0118 0
M  V30 34 C -1.7583 -5.3298 1.5249 0
M  V30 35 C -3.6897 3.6446 -1.2115 0 CFG=1
M  V30 36 C -2.9968 -5.6489 1.1153 0
M  V30 37 O -2.8169 2.5326 -1.1155 0
M  V30 38 O -5.0347 3.1696 -1.1923 0
M  V30 39 C -3.4892 4.4335 -2.5213 0
M  V30 40 C -3.4017 -6.2693 -0.1277 0
M  V30 41 C -2.9303 1.5423 -2.1529 0 CFG=2
M  V30 42 C -2.9272 3.5682 -3.6463 0 CFG=2
M  V30 43 C -3.2168 -5.812 -1.3775 0
M  V30 44 C -3.4004 2.1243 -3.4953 0 CFG=1
M  V30 45 C -3.7993 0.3447 -1.7118 0
M  V30 46 O -1.4976 3.6669 -3.5936 0
M  V30 47 C -2.5361 -4.6051 -1.798 0
M  V30 48 C -2.8808 1.3036 -4.6468 0
M  V30 49 C -3.3342 -0.3383 -0.4106 0 CFG=2
M  V30 50 C -2.818 -3.3293 -1.4864 0
M  V30 51 O -1.8161 1.4639 -5.2232 0
M  V30 52 O -3.7216 0.3221 -5.0195 0
M  V30 53 O -3.6685 0.5236 0.6739 0
M  V30 54 O -1.9372 -0.5944 -0.4981 0
M  V30 55 C -4.1374 -1.611 -0.2391 0
M  V30 56 C -3.9127 -2.8669 -0.6636 0
M  V30 57 C -2.7952 0.4586 1.8026 0 CFG=2
M  V30 58 O -2.4936 -0.8886 2.1884 0
M  V30 59 C -3.4464 1.2407 2.9673 0 CFG=1
M  V30 60 C -1.6112 -0.9953 3.3094 0 CFG=2
M  V30 61 O -4.7302 0.6893 3.3288 0
M  V30 62 C -2.5385 1.1969 4.2056 0 CFG=2
M  V30 63 C -2.1758 -0.2654 4.5426 0 CFG=2
M  V30 64 C -0.1851 -0.5882 2.933 0
M  V30 65 N -3.228 1.8257 5.364 0
M  V30 66 O -1.2505 -0.2844 5.6354 0
M  V30 67 H 2.9807 -0.0415 0.489 0
M  V30 68 H 3.485 1.5287 -0.1108 0
M  V30 69 H 4.5493 -1.9545 -2.9153 0
M  V30 70 H 1.037 1.4128 0.0093 0
M  V30 71 H 3.9757 -3.6401 -1.1495 0
M  V30 72 H 7.0819 -2.0915 -2.8479 0
M  V30 73 H 6.4524 -0.4569 -2.6243 0
M  V30 74 H 7.0383 -1.3337 -1.2349 0
M  V30 75 H -0.1168 -0.2453 -0.9191 0
M  V30 76 H 1.6127 0.9654 -2.9513 0
M  V30 77 H 0.1779 1.6445 -2.281 0
M  V30 78 H 5.683 -4.921 -0.0188 0
M  V30 79 H 5.1335 -5.4746 -2.3432 0
M  V30 80 H 4.5076 -4.2497 -3.4491 0
M  V30 81 H 6.2397 -4.3122 -3.095 0
M  V30 82 H 1.6293 3.3095 -3.3237 0
M  V30 83 H 7.7855 -4.5229 -0.1774 0
M  V30 84 H 6.1002 -1.9852 0.7385 0
M  V30 85 H 3.6109 2.3267 -2.7172 0
M  V30 86 H 0.1147 3.815 -1.2644 0
M  V30 87 H 1.1977 5.0185 -1.9164 0
M  V30 88 H 4.4381 -2.136 2.443 0
M  V30 89 H 7.9146 -3.2935 1.6563 0
M  V30 90 H 6.7903 -4.5067 2.2995 0
M  V30 91 H 6.8192 -2.8637 2.9628 0
M  V30 92 H 2.8057 4.7986 -0.2374 0
M  V30 93 H 2.129 3.3443 0.4482 0
M  V30 94 H 3.4896 -4.6008 0.8884 0
M  V30 95 H 1.8293 5.5262 1.6907 0
M  V30 96 H 2.3051 -2.891 3.1831 0
M  V30 97 H -0.0691 6.7473 0.898 0
M  V30 98 H -0.34 5.1814 2.5746 0
M  V30 99 H 0.2543 -3.9054 2.8367 0
M  V30 100 H 0.8122 2.6814 1.9104 0
M  V30 101 H -1.9158 3.5447 1.8735 0
M  V30 102 H -1.0262 3.1193 0.4487 0
M  V30 103 H 1.4969 -5.407 0.4189 0
M  V30 104 H -1.5603 5.3185 -0.5856 0
M  V30 105 H -0.6058 -6.2482 -0.0502 0
M  V30 106 H -2.6399 6.8795 0.6429 0
M  V30 107 H -3.9285 4.0732 0.9039 0
M  V30 108 H -4.1707 5.4434 -0.1207 0
M  V30 109 H -1.6783 -4.8461 2.4944 0
M  V30 110 H -3.8243 -5.4358 1.7916 0
M  V30 111 H -5.1413 2.7244 -0.331 0
M  V30 112 H -4.4557 4.8482 -2.8366 0
M  V30 113 H -2.8184 5.2866 -2.3719 0
M  V30 114 H -3.9616 -7.1951 -9.0E-4 0
M  V30 115 H -1.9154 1.1565 -2.2874 0
M  V30 116 H -3.2319 3.9852 -4.6135 0
M  V30 117 H -3.575 -6.4279 -2.2016 0
M  V30 118 H -4.497 2.1281 -3.5581 0
M  V30 119 H -4.8398 0.6713 -1.5929 0
M  V30 120 H -3.7826 -0.3923 -2.524 0
M  V30 121 H -1.1435 3.1531 -4.3498 0
M  V30 122 H -1.7044 -4.7845 -2.4788 0
M  V30 123 H -2.1719 -2.57 -1.922 0
M  V30 124 H -3.2698 -0.1326 -5.7621 0
M  V30 125 H -1.8024 -1.3324 0.1322 0
M  V30 126 H -5.0489 -1.4611 0.3421 0
M  V30 127 H -4.6493 -3.6182 -0.3821 0
M  V30 128 H -1.8673 0.9641 1.5131 0
M  V30 129 H -3.6436 2.2727 2.6597 0
M  V30 130 H -1.5648 -2.0637 3.5541 0
M  V30 131 H -4.8876 1.0247 4.2368 0
M  V30 132 H -1.6195 1.767 4.0245 0
M  V30 133 H -3.0852 -0.7868 4.8708 0
M  V30 134 H -0.0918 0.4875 2.7619 0
M  V30 135 H 0.524 -0.8647 3.7192 0
M  V30 136 H 0.1167 -1.0815 2.0033 0
M  V30 137 H -3.1813 2.8411 5.2598 0
M  V30 138 H -2.6553 1.6181 6.1902 0
M  V30 139 H -1.2218 -1.1986 5.9692 0
M  V30 END ATOM
M  V30 BEGIN BOND
M  V30 1 2 1 2
M  V30 2 1 2 3
M  V30 3 1 2 4
M  V30 4 1 3 5
M  V30 5 1 4 6
M  V30 6 1 5 7
M  V30 7 1 5 8
M  V30 8 1 6 9
M  V30 9 1 6 10
M  V30 10 1 7 11
M  V30 11 1 7 12
M  V30 12 1 10 13
M  V30 13 1 11 14
M  V30 14 1 11 15
M  V30 15 1 13 16
M  V30 16 1 13 17
M  V30 17 1 15 18
M  V30 18 1 15 19
M  V30 19 1 17 20
M  V30 20 2 18 21
M  V30 21 1 20 22
M  V30 22 1 21 23
M  V30 23 1 22 24
M  V30 24 1 22 25
M  V30 25 2 23 26
M  V30 26 1 25 27
M  V30 27 1 25 28
M  V30 28 1 26 29
M  V30 29 1 28 30
M  V30 30 2 29 31
M  V30 31 1 30 32
M  V30 32 1 30 33
M  V30 33 1 31 34
M  V30 34 1 33 35
M  V30 35 2 34 36
M  V30 36 1 35 37
M  V30 37 1 35 38
M  V30 38 1 35 39
M  V30 39 1 36 40
M  V30 40 1 37 41
M  V30 41 1 39 42
M  V30 42 2 40 43
M  V30 43 1 41 44
M  V30 44 1 41 45
M  V30 45 1 42 46
M  V30 46 1 43 47
M  V30 47 1 44 48
M  V30 48 1 45 49
M  V30 49 2 47 50
M  V30 50 2 48 51
M  V30 51 1 48 52
M  V30 52 1 49 53
M  V30 53 1 49 54
M  V30 54 1 49 55
M  V30 55 1 50 56
M  V30 56 1 53 57
M  V30 57 1 57 58
M  V30 58 1 57 59
M  V30 59 1 58 60
M  V30 60 1 59 61
M  V30 61 1 59 62
M  V30 62 1 60 63
M  V30 63 1 60 64
M  V30 64 1 62 65
M  V30 65 1 63 66
M  V30 66 1 42 44
M  V30 67 2 55 56
M  V30 68 1 62 63
M  V30 69 1 4 67
M  V30 70 1 4 68
M  V30 71 1 5 69
M  V30 72 1 6 70
M  V30 73 1 7 71
M  V30 74 1 8 72
M  V30 75 1 8 73
M  V30 76 1 8 74
M  V30 77 1 9 75
M  V30 78 1 10 76
M  V30 79 1 10 77
M  V30 80 1 11 78
M  V30 81 1 12 79
M  V30 82 1 12 80
M  V30 83 1 12 81
M  V30 84 1 13 82
M  V30 85 1 14 83
M  V30 86 1 15 84
M  V30 87 1 16 85
M  V30 88 1 17 86
M  V30 89 1 17 87
M  V30 90 1 18 88
M  V30 91 1 19 89
M  V30 92 1 19 90
M  V30 93 1 19 91
M  V30 94 1 20 92
M  V30 95 1 20 93
M  V30 96 1 21 94
M  V30 97 1 22 95
M  V30 98 1 23 96
M  V30 99 1 24 97
M  V30 100 1 25 98
M  V30 101 1 26 99
M  V30 102 1 27 100
M  V30 103 1 28 101
M  V30 104 1 28 102
M  V30 105 1 29 103
M  V30 106 1 30 104
M  V30 107 1 31 105
M  V30 108 1 32 106
M  V30 109 1 33 107
M  V30 110 1 33 108
M  V30 111 1 34 109
M  V30 112 1 36 110
M  V30 113 1 38 111
M  V30 114 1 39 112
M  V30 115 1 39 113
M  V30 116 1 40 114
M  V30 117 1 41 115
M  V30 118 1 42 116
M  V30 119 1 43 117
M  V30 120 1 44 118
M  V30 121 1 45 119
M  V30 122 1 45 120
M  V30 123 1 46 121
M  V30 124 1 47 122
M  V30 125 1 50 123
M  V30 126 1 52 124
M  V30 127 1 54 125
M  V30 128 1 55 126
M  V30 129 1 56 127
M  V30 130 1 57 128
M  V30 131 1 59 129
M  V30 132 1 60 130
M  V30 133 1 61 131
M  V30 134 1 62 132
M  V30 135 1 63 133
M  V30 136 1 64 134
M  V30 137 1 64 135
M  V30 138 1 64 136
M  V30 139 1 65 137
M  V30 140 1 65 138
M  V30 141 1 66 139
M  V30 END BOND
M  V30 BEGIN COLLECTION
M  V30 MDLV30/STEABS ATOMS=(19 5 6 7 11 13 15 22 25 30 35 41 42 44 49 57 59 60 62 63)
M  V30 END COLLECTION
M  V30 END CTAB
M  END
>  <level_0>
7472

>  <index>
7472

>  <NO.>
7473

>  <Name>


>  <SMILES>
C[C@@H]1OC(=O)C[C@H](O)C[C@H](O)CC[C@@H](O)[C@H](O)C[C@H](O)C[C@@]2(O)C[C@@H](O)[C@@H](C(=O)O)[C@H](C[C@@](O)(O[C@@H]3O[C@@H](C)[C@@H](O)[C@H](N)[C@@H]3O)C=CC=CC=CC=CC=CC=CC=C[C@@H](C)[C@H](O)[C@@H]1C)O2

>  <logBB>


>  <Class>
-1

>  <MW>
939.48

>  <nHBAcc>
18

>  <nHBDon>
13

>  <SLogP>
0.03

>  <TopoPSA>
339.84

>  <MMFF94 Energy>
113.43

$$$$
Cc1cc(O)c(C(=O)N[C@@H](C(=O)N[C@H]2C(=O)N3C(C(=O)O)=C(CSc4nnnn4C)CS[C@@H]23)c2ccc(O)cc2)cn1
Actelion Java MolfileCreator 2.0

  0  0  0  0  0  0              0 V3000
M  V30 BEGIN CTAB
M  V30 COUNTS 66 70 0 0 0
M  V30 BEGIN ATOM
M  V30 1 S -2.2915 2.0458 -0.6543 0
M  V30 2 C -2.5974 0.3108 -1.0708 0 CFG=2
M  V30 3 C -3.9582 2.2708 0.0615 0
M  V30 4 N -2.8484 -0.3991 0.159 0
M  V30 5 C -1.3613 -0.6193 -1.2615 0 CFG=2
M  V30 6 C -4.3388 1.1956 1.068 0
M  V30 7 C -3.757 -0.0273 1.0939 0
M  V30 8 C -1.9823 -1.413 -0.0417 0
M  V30 9 N -0.0225 -0.0224 -1.0025 0
M  V30 10 C -5.3528 1.6475 2.1012 0
M  V30 11 C -4.0493 -0.9897 2.1854 0
M  V30 12 O -1.7844 -2.441 0.5588 0
M  V30 13 C 1.1352 -0.7611 -1.1402 0
M  V30 14 S -7.0476 1.3407 1.5242 0
M  V30 15 O -5.1006 -1.5757 2.3644 0
M  V30 16 O -2.9999 -1.1088 3.0156 0
M  V30 17 O 1.1274 -1.911 -1.5798 0
M  V30 18 C 2.4186 -0.0409 -0.6609 0 CFG=2
M  V30 19 C -7.4267 2.803 0.6961 0
M  V30 20 N 3.5801 -0.7766 -1.1174 0
M  V30 21 C 2.4496 0.1222 0.851 0
M  V30 22 N -6.6531 3.8481 0.518 0
M  V30 23 N -8.6272 3.0444 0.0947 0
M  V30 24 C 4.7563 -0.1738 -1.4755 0
M  V30 25 C 2.0133 -0.8974 1.7154 0
M  V30 26 C 2.9566 1.3069 1.4102 0
M  V30 27 N -7.3947 4.7438 -0.2153 0
M  V30 28 N -8.6008 4.2594 -0.4816 0
M  V30 29 C -9.7987 2.2184 0.0131 0
M  V30 30 O 4.9067 1.0443 -1.4584 0
M  V30 31 C 5.8688 -1.062 -1.9075 0
M  V30 32 C 2.0473 -0.7209 3.101 0
M  V30 33 C 2.993 1.4813 2.7946 0
M  V30 34 C 5.8119 -2.455 -1.9975 0
M  V30 35 C 7.0725 -0.4638 -2.2575 0
M  V30 36 C 2.5342 0.4698 3.6282 0
M  V30 37 O 4.6653 -3.1322 -1.6726 0
M  V30 38 C 6.9262 -3.1795 -2.4211 0
M  V30 39 N 8.1745 -1.1406 -2.6746 0
M  V30 40 O 2.5844 0.6822 4.9741 0
M  V30 41 C 8.087 -2.4868 -2.75 0
M  V30 42 C 9.306 -3.2299 -3.2083 0
M  V30 43 H -3.3803 0.1539 -1.8228 0
M  V30 44 H -3.942 3.2536 0.5426 0
M  V30 45 H -4.6909 2.2994 -0.7512 0
M  V30 46 H -1.3839 -1.1761 -2.2048 0
M  V30 47 H 0.0373 0.9117 -0.6031 0
M  V30 48 H -5.2297 1.1002 3.0415 0
M  V30 49 H -5.2061 2.699 2.3721 0
M  V30 50 H -3.2556 -1.8266 3.6299 0
M  V30 51 H 2.4176 0.9483 -1.1373 0
M  V30 52 H 3.4988 -1.7894 -1.191 0
M  V30 53 H 1.6391 -1.8407 1.3193 0
M  V30 54 H 3.341 2.0978 0.7674 0
M  V30 55 H -10.5838 2.7485 -0.5327 0
M  V30 56 H -9.5424 1.298 -0.5171 0
M  V30 57 H -10.1446 1.9978 1.0259 0
M  V30 58 H 1.6938 -1.5204 3.7442 0
M  V30 59 H 3.3864 2.4004 3.2193 0
M  V30 60 H 7.1996 0.6158 -2.2143 0
M  V30 61 H 4.7861 -4.0834 -1.8396 0
M  V30 62 H 6.905 -4.2609 -2.4961 0
M  V30 63 H 2.2576 -0.1145 5.4227 0
M  V30 64 H 9.0845 -3.793 -4.1202 0
M  V30 65 H 10.1258 -2.5378 -3.4257 0
M  V30 66 H 9.6415 -3.9221 -2.4299 0
M  V30 END ATOM
M  V30 BEGIN BOND
M  V30 1 1 1 2
M  V30 2 1 1 3
M  V30 3 1 2 4
M  V30 4 1 2 5
M  V30 5 1 3 6
M  V30 6 1 4 7
M  V30 7 1 4 8
M  V30 8 1 5 9
M  V30 9 1 6 10
M  V30 10 1 7 11
M  V30 11 2 8 12
M  V30 12 1 9 13
M  V30 13 1 10 14
M  V30 14 2 11 15
M  V30 15 1 11 16
M  V30 16 2 13 17
M  V30 17 1 13 18
M  V30 18 1 14 19
M  V30 19 1 18 20
M  V30 20 1 18 21
M  V30 21 2 19 22
M  V30 22 1 19 23
M  V30 23 1 20 24
M  V30 24 2 21 25
M  V30 25 1 21 26
M  V30 26 1 22 27
M  V30 27 1 23 28
M  V30 28 1 23 29
M  V30 29 2 24 30
M  V30 30 1 24 31
M  V30 31 1 25 32
M  V30 32 2 26 33
M  V30 33 2 31 34
M  V30 34 1 31 35
M  V30 35 2 32 36
M  V30 36 1 34 37
M  V30 37 1 34 38
M  V30 38 2 35 39
M  V30 39 1 36 40
M  V30 40 2 38 41
M  V30 41 1 41 42
M  V30 42 1 5 8
M  V30 43 2 6 7
M  V30 44 2 27 28
M  V30 45 1 33 36
M  V30 46 1 39 41
M  V30 47 1 2 43
M  V30 48 1 3 44
M  V30 49 1 3 45
M  V30 50 1 5 46
M  V30 51 1 9 47
M  V30 52 1 10 48
M  V30 53 1 10 49
M  V30 54 1 16 50
M  V30 55 1 18 51
M  V30 56 1 20 52
M  V30 57 1 25 53
M  V30 58 1 26 54
M  V30 59 1 29 55
M  V30 60 1 29 56
M  V30 61 1 29 57
M  V30 62 1 32 58
M  V30 63 1 33 59
M  V30 64 1 35 60
M  V30 65 1 37 61
M  V30 66 1 38 62
M  V30 67 1 40 63
M  V30 68 1 42 64
M  V30 69 1 42 65
M  V30 70 1 42 66
M  V30 END BOND
M  V30 BEGIN COLLECTION
M  V30 MDLV30/STEABS ATOMS=(3 2 5 18)
M  V30 END COLLECTION
M  V30 END CTAB
M  END
>  <level_0>
7577

>  <index>
7577

>  <NO.>
7578

>  <Name>
cefpiramide

>  <SMILES>
Cc1cc(O)c(C(=O)N[C@@H](C(=O)N[C@H]2C(=O)N3C(C(=O)O)=C(CSc4nnnn4C)CS[C@@H]23)c2ccc(O)cc2)cn1

>  <logBB>


>  <Class>
-1

>  <MW>
612.12

>  <nHBAcc>
12

>  <nHBDon>
5

>  <SLogP>
0.33

>  <TopoPSA>
212.76

>  <MMFF94 Energy>
41.365

$$$$
Cc1cn([C@H]2C=C[C@H](CO)O2)c(=O)nc1N
Actelion Java MolfileCreator 2.0

  0  0  0  0  0  0              0 V3000
M  V30 BEGIN CTAB
M  V30 COUNTS 29 30 0 0 0
M  V30 BEGIN ATOM
M  V30 1 O 1.9742 -0.4735 -0.7893 0
M  V30 2 C 0.7881 -0.6654 -1.044 0
M  V30 3 N 0.4474 -1.2885 -2.2222 0
M  V30 4 N -0.2416 -0.2854 -0.1777 0
M  V30 5 C -0.7947 -1.5041 -2.5235 0
M  V30 6 C -1.5635 -0.5147 -0.5031 0
M  V30 7 C 0.0594 0.379 1.0818 0 CFG=2
M  V30 8 N -1.0114 -2.1253 -3.7163 0
M  V30 9 C -1.9225 -1.1103 -1.6431 0
M  V30 10 O 0.7755 1.6077 0.8681 0
M  V30 11 C 0.8771 -0.4399 2.0082 0
M  V30 12 C -3.332 -1.3795 -2.0463 0
M  V30 13 C 2.054 1.4997 1.548 0 CFG=2
M  V30 14 C 1.9994 0.2144 2.3052 0
M  V30 15 C 2.2493 2.742 2.4266 0
M  V30 16 O 1.1187 2.9659 3.2746 0
M  V30 17 H -2.3142 -0.1854 0.2095 0
M  V30 18 H -0.8741 0.6524 1.5885 0
M  V30 19 H -1.9229 -2.35 -4.083 0
M  V30 20 H -0.1946 -2.3613 -4.2668 0
M  V30 21 H 0.5932 -1.4089 2.3866 0
M  V30 22 H -4.0444 -1.0284 -1.2919 0
M  V30 23 H -3.5681 -0.8692 -2.9857 0
M  V30 24 H -3.4959 -2.4537 -2.18 0
M  V30 25 H 2.8476 1.4596 0.7941 0
M  V30 26 H 2.7863 -0.1451 2.951 0
M  V30 27 H 2.3527 3.632 1.7968 0
M  V30 28 H 3.1422 2.6548 3.0533 0
M  V30 29 H 0.3472 2.9389 2.6787 0
M  V30 END ATOM
M  V30 BEGIN BOND
M  V30 1 2 1 2
M  V30 2 1 2 3
M  V30 3 1 2 4
M  V30 4 2 3 5
M  V30 5 1 4 6
M  V30 6 1 4 7
M  V30 7 1 5 8
M  V30 8 1 5 9
M  V30 9 1 7 10
M  V30 10 1 7 11
M  V30 11 1 9 12
M  V30 12 1 10 13
M  V30 13 2 11 14
M  V30 14 1 13 15
M  V30 15 1 15 16
M  V30 16 2 6 9
M  V30 17 1 13 14
M  V30 18 1 6 17
M  V30 19 1 7 18
M  V30 20 1 8 19
M  V30 21 1 8 20
M  V30 22 1 11 21
M  V30 23 1 12 22
M  V30 24 1 12 23
M  V30 25 1 12 24
M  V30 26 1 13 25
M  V30 27 1 14 26
M  V30 28 1 15 27
M  V30 29 1 15 28
M  V30 30 1 16 29
M  V30 END BOND
M  V30 BEGIN COLLECTION
M  V30 MDLV30/STEABS ATOMS=(2 7 13)
M  V30 END COLLECTION
M  V30 END CTAB
M  END
>  <level_0>
7589

>  <index>
7589

>  <NO.>
7590

>  <Name>
4-amino-1-[(2r,5r)-5-(hydroxymethyl)-2,5-dihydrofuran-2-yl]-5-methylpyrimidin-2-one

>  <SMILES>
Cc1cn([C@H]2C=C[C@H](CO)O2)c(=O)nc1N

>  <logBB>


>  <Class>
1

>  <MW>
223.1

>  <nHBAcc>
5

>  <nHBDon>
2

>  <SLogP>
-0.42

>  <TopoPSA>
90.37

>  <MMFF94 Energy>
-60.6

$$$$
Cc1cnc(C(=O)O)c[n+]1[O-]
Actelion Java MolfileCreator 2.0

  0  0  0  0  0  0              0 V3000
M  V30 BEGIN CTAB
M  V30 COUNTS 17 17 0 0 0
M  V30 BEGIN ATOM
M  V30 1 O -1.8168 -2.9239 1.4216 0
M  V30 2 C -1.702 -2.1855 0.4613 0
M  V30 3 O -2.4807 -2.3535 -0.6275 0
M  V30 4 C -0.7542 -1.043 0.3133 0
M  V30 5 N 0.0665 -0.8037 1.3634 0
M  V30 6 C -0.7317 -0.2858 -0.8368 0
M  V30 7 C 0.9288 0.2222 1.2499 0
M  V30 8 N 0.1568 0.7571 -0.9313 0 CHG=1
M  V30 9 C 1.0102 1.0272 0.127 0
M  V30 10 O 0.1812 1.4599 -1.9924 0 CHG=-1
M  V30 11 C 1.9649 2.1641 0.0 0
M  V30 12 H -3.0425 -3.1243 -0.3925 0
M  V30 13 H -1.352 -0.4178 -1.7066 0
M  V30 14 H 1.5706 0.3829 2.1125 0
M  V30 15 H 2.6387 2.0032 -0.8473 0
M  V30 16 H 1.422 3.1034 -0.145 0
M  V30 17 H 2.5795 2.2691 0.9002 0
M  V30 END ATOM
M  V30 BEGIN BOND
M  V30 1 2 1 2
M  V30 2 1 2 3
M  V30 3 1 2 4
M  V30 4 2 4 5
M  V30 5 1 4 6
M  V30 6 1 5 7
M  V30 7 2 6 8
M  V30 8 2 7 9
M  V30 9 1 8 10
M  V30 10 1 9 11
M  V30 11 1 8 9
M  V30 12 1 3 12
M  V30 13 1 6 13
M  V30 14 1 7 14
M  V30 15 1 11 15
M  V30 16 1 11 16
M  V30 17 1 11 17
M  V30 END BOND
M  V30 END CTAB
M  END
>  <level_0>
7590

>  <index>
7590

>  <NO.>
7591

>  <Name>
acipimox

>  <SMILES>
Cc1cnc(C(=O)O)c[n+]1[O-]

>  <logBB>


>  <Class>
1

>  <MW>
154.04

>  <nHBAcc>
3

>  <nHBDon>
1

>  <SLogP>
-0.28

>  <TopoPSA>
77.13

>  <MMFF94 Energy>
-11.192

$$$$
Cn1c(=O)c2c(ncn2CCCNC[C@@H](O)c2cc(O)cc(O)c2)n(C)c1=O
Actelion Java MolfileCreator 2.0

  0  0  0  0  0  0              0 V3000
M  V30 BEGIN CTAB
M  V30 COUNTS 51 53 0 0 0
M  V30 BEGIN ATOM
M  V30 1 O -4.1093 0.0789 -6.486 0
M  V30 2 C -3.8769 0.1242 -5.2743 0
M  V30 3 N -2.9258 -0.735 -4.6862 0
M  V30 4 N -4.5358 1.0179 -4.4301 0
M  V30 5 C -2.5876 -0.7711 -3.3302 0
M  V30 6 C -2.2525 -1.654 -5.5829 0
M  V30 7 C -4.2356 1.0229 -3.0895 0
M  V30 8 C -5.5288 1.9366 -4.9564 0
M  V30 9 O -1.7575 -1.5332 -2.844 0
M  V30 10 C -3.3116 0.1763 -2.5548 0
M  V30 11 N -4.7904 1.8349 -2.1473 0
M  V30 12 N -3.2885 0.478 -1.2221 0
M  V30 13 C -4.2002 1.4833 -1.0232 0
M  V30 14 C -2.4777 -0.1385 -0.1908 0
M  V30 15 C -1.0908 0.4926 -0.0938 0
M  V30 16 C -0.2538 -0.1984 0.9815 0
M  V30 17 N 1.0652 0.4336 1.0609 0
M  V30 18 C 1.8826 -0.2021 2.1166 0
M  V30 19 C 3.3516 0.2821 2.0605 0 CFG=1
M  V30 20 O 3.3773 1.7127 1.9747 0
M  V30 21 C 4.1397 -0.193 3.2623 0
M  V30 22 C 4.3779 0.6384 4.3684 0
M  V30 23 C 4.6276 -1.5098 3.2947 0
M  V30 24 C 5.0904 0.1565 5.4655 0
M  V30 25 C 5.3334 -1.9724 4.4022 0
M  V30 26 O 5.3398 0.9485 6.5485 0
M  V30 27 C 5.5701 -1.1469 5.4942 0
M  V30 28 O 5.7798 -3.261 4.3753 0
M  V30 29 H -1.7386 -1.0795 -6.3607 0
M  V30 30 H -3.0009 -2.2909 -6.0659 0
M  V30 31 H -1.5248 -2.2872 -5.0698 0
M  V30 32 H -5.2079 2.9635 -4.7548 0
M  V30 33 H -6.4873 1.7485 -4.462 0
M  V30 34 H -5.6634 1.8185 -6.0346 0
M  V30 35 H -4.3915 1.9186 -0.0503 0
M  V30 36 H -3.0161 -0.0282 0.7581 0
M  V30 37 H -2.4198 -1.211 -0.4032 0
M  V30 38 H -1.1901 1.5618 0.135 0
M  V30 39 H -0.5801 0.4262 -1.0629 0
M  V30 40 H -0.1451 -1.2597 0.7286 0
M  V30 41 H -0.766 -0.1288 1.9488 0
M  V30 42 H 0.9447 1.4168 1.3137 0
M  V30 43 H 1.4446 0.0504 3.091 0
M  V30 44 H 1.8628 -1.2942 2.0152 0
M  V30 45 H 3.8369 -0.0922 1.15 0
M  V30 46 H 3.0032 1.9057 1.0959 0
M  V30 47 H 4.0054 1.6594 4.3591 0
M  V30 48 H 4.4621 -2.1829 2.4565 0
M  V30 49 H 5.0018 1.8398 6.3584 0
M  V30 50 H 6.1191 -1.4935 6.3626 0
M  V30 51 H 6.2719 -3.4308 5.196 0
M  V30 END ATOM
M  V30 BEGIN BOND
M  V30 1 2 1 2
M  V30 2 1 2 3
M  V30 3 1 2 4
M  V30 4 1 3 5
M  V30 5 1 3 6
M  V30 6 1 4 7
M  V30 7 1 4 8
M  V30 8 2 5 9
M  V30 9 1 5 10
M  V30 10 1 7 11
M  V30 11 1 10 12
M  V30 12 2 11 13
M  V30 13 1 12 14
M  V30 14 1 14 15
M  V30 15 1 15 16
M  V30 16 1 16 17
M  V30 17 1 17 18
M  V30 18 1 18 19
M  V30 19 1 19 20
M  V30 20 1 19 21
M  V30 21 2 21 22
M  V30 22 1 21 23
M  V30 23 1 22 24
M  V30 24 2 23 25
M  V30 25 1 24 26
M  V30 26 2 24 27
M  V30 27 1 25 28
M  V30 28 2 7 10
M  V30 29 1 12 13
M  V30 30 1 25 27
M  V30 31 1 6 29
M  V30 32 1 6 30
M  V30 33 1 6 31
M  V30 34 1 8 32
M  V30 35 1 8 33
M  V30 36 1 8 34
M  V30 37 1 13 35
M  V30 38 1 14 36
M  V30 39 1 14 37
M  V30 40 1 15 38
M  V30 41 1 15 39
M  V30 42 1 16 40
M  V30 43 1 16 41
M  V30 44 1 17 42
M  V30 45 1 18 43
M  V30 46 1 18 44
M  V30 47 1 19 45
M  V30 48 1 20 46
M  V30 49 1 22 47
M  V30 50 1 23 48
M  V30 51 1 26 49
M  V30 52 1 27 50
M  V30 53 1 28 51
M  V30 END BOND
M  V30 BEGIN COLLECTION
M  V30 MDLV30/STEABS ATOMS=(1 19)
M  V30 END COLLECTION
M  V30 END CTAB
M  END
>  <level_0>
7604

>  <index>
7604

>  <NO.>
7605

>  <Name>
zinc2019839

>  <SMILES>
Cn1c(=O)c2c(ncn2CCCNC[C@@H](O)c2cc(O)cc(O)c2)n(C)c1=O

>  <logBB>


>  <Class>
1

>  <MW>
389.17

>  <nHBAcc>
7

>  <nHBDon>
4

>  <SLogP>
-0.44

>  <TopoPSA>
134.54

>  <MMFF94 Energy>
-102.74

$$$$
Fc1ccc(C(c2ccc(F)cc2)N2CCN(CCCc3ccccc3)CC2)cc1
Actelion Java MolfileCreator 2.0

  0  0  0  0  0  0              0 V3000
M  V30 BEGIN CTAB
M  V30 COUNTS 58 61 0 0 0
M  V30 BEGIN ATOM
M  V30 1 F 4.9674 -3.0423 5.4492 0
M  V30 2 C 3.9216 -2.7192 4.677 0
M  V30 3 C 3.4022 -1.4326 4.7317 0
M  V30 4 C 3.373 -3.6769 3.8334 0
M  V30 5 C 2.313 -1.0959 3.9265 0
M  V30 6 C 2.2835 -3.3429 3.0265 0
M  V30 7 C 1.7409 -2.0445 3.0572 0
M  V30 8 C 0.5274 -1.7037 2.1774 0
M  V30 9 N 0.6637 -0.4051 1.452 0
M  V30 10 C -0.7499 -1.8002 3.0269 0
M  V30 11 C 1.8756 -0.3982 0.593 0
M  V30 12 C -0.504 -0.1628 0.5664 0
M  V30 13 C -1.1468 -0.7572 3.8859 0
M  V30 14 C -1.5345 -2.9678 2.9787 0
M  V30 15 C 2.0138 0.9036 -0.2279 0
M  V30 16 C -0.3712 1.1369 -0.2621 0
M  V30 17 C -2.2999 -0.8739 4.6636 0
M  V30 18 C -2.6874 -3.0819 3.7581 0
M  V30 19 N 0.8452 1.1468 -1.097 0
M  V30 20 C -3.0589 -2.0345 4.5919 0
M  V30 21 C 1.01 2.414 -1.8255 0
M  V30 22 F -4.166 -2.1464 5.3377 0
M  V30 23 C -0.0424 2.6597 -2.915 0
M  V30 24 C -0.0817 1.5445 -3.9632 0
M  V30 25 C -1.0676 1.8556 -5.0632 0
M  V30 26 C -2.4163 1.5004 -4.9277 0
M  V30 27 C -0.6541 2.5283 -6.2206 0
M  V30 28 C -3.3322 1.8034 -5.9362 0
M  V30 29 C -1.5715 2.8305 -7.2282 0
M  V30 30 C -2.9097 2.4675 -7.0862 0
M  V30 31 H 3.8452 -0.7007 5.3991 0
M  V30 32 H 3.7941 -4.6768 3.8119 0
M  V30 33 H 1.9132 -0.0851 3.9692 0
M  V30 34 H 1.8579 -4.1031 2.3753 0
M  V30 35 H 0.4602 -2.4843 1.4046 0
M  V30 36 H 2.7813 -0.4835 1.2025 0
M  V30 37 H 1.8643 -1.2549 -0.0946 0
M  V30 38 H -1.4217 -0.0664 1.1561 0
M  V30 39 H -0.6466 -1.0088 -0.12 0
M  V30 40 H -0.5588 0.1562 3.9418 0
M  V30 41 H -1.2499 -3.797 2.3351 0
M  V30 42 H 2.1673 1.7468 0.4593 0
M  V30 43 H 2.9157 0.8182 -0.8463 0
M  V30 44 H -0.3807 1.9987 0.4187 0
M  V30 45 H -1.2617 1.2099 -0.896 0
M  V30 46 H -2.6078 -0.0689 5.3228 0
M  V30 47 H -3.2949 -3.9804 3.7229 0
M  V30 48 H 1.9913 2.4163 -2.3182 0
M  V30 49 H 1.0091 3.2636 -1.13 0
M  V30 50 H 0.1945 3.6129 -3.4062 0
M  V30 51 H -1.0338 2.7956 -2.4665 0
M  V30 52 H 0.9152 1.3992 -4.398 0
M  V30 53 H -0.3539 0.5867 -3.5031 0
M  V30 54 H -2.7594 0.9848 -4.0337 0
M  V30 55 H 0.3859 2.8206 -6.3434 0
M  V30 56 H -4.3758 1.5219 -5.8238 0
M  V30 57 H -1.2419 3.3502 -8.1238 0
M  V30 58 H -3.6232 2.7032 -7.8712 0
M  V30 END ATOM
M  V30 BEGIN BOND
M  V30 1 1 1 2
M  V30 2 2 2 3
M  V30 3 1 2 4
M  V30 4 1 3 5
M  V30 5 2 4 6
M  V30 6 2 5 7
M  V30 7 1 7 8
M  V30 8 1 8 9
M  V30 9 1 8 10
M  V30 10 1 9 11
M  V30 11 1 9 12
M  V30 12 2 10 13
M  V30 13 1 10 14
M  V30 14 1 11 15
M  V30 15 1 12 16
M  V30 16 1 13 17
M  V30 17 2 14 18
M  V30 18 1 15 19
M  V30 19 2 17 20
M  V30 20 1 19 21
M  V30 21 1 20 22
M  V30 22 1 21 23
M  V30 23 1 23 24
M  V30 24 1 24 25
M  V30 25 2 25 26
M  V30 26 1 25 27
M  V30 27 1 26 28
M  V30 28 2 27 29
M  V30 29 2 28 30
M  V30 30 1 6 7
M  V30 31 1 16 19
M  V30 32 1 18 20
M  V30 33 1 29 30
M  V30 34 1 3 31
M  V30 35 1 4 32
M  V30 36 1 5 33
M  V30 37 1 6 34
M  V30 38 1 8 35
M  V30 39 1 11 36
M  V30 40 1 11 37
M  V30 41 1 12 38
M  V30 42 1 12 39
M  V30 43 1 13 40
M  V30 44 1 14 41
M  V30 45 1 15 42
M  V30 46 1 15 43
M  V30 47 1 16 44
M  V30 48 1 16 45
M  V30 49 1 17 46
M  V30 50 1 18 47
M  V30 51 1 21 48
M  V30 52 1 21 49
M  V30 53 1 23 50
M  V30 54 1 23 51
M  V30 55 1 24 52
M  V30 56 1 24 53
M  V30 57 1 26 54
M  V30 58 1 27 55
M  V30 59 1 28 56
M  V30 60 1 29 57
M  V30 61 1 30 58
M  V30 END BOND
M  V30 END CTAB
M  END
>  <level_0>
7608

>  <index>
7608

>  <NO.>
7609

>  <Name>
oprea1_628450

>  <SMILES>
Fc1ccc(C(c2ccc(F)cc2)N2CCN(CCCc3ccccc3)CC2)cc1

>  <logBB>


>  <Class>
1

>  <MW>
406.22

>  <nHBAcc>
2

>  <nHBDon>
0

>  <SLogP>
5.3

>  <TopoPSA>
6.48

>  <MMFF94 Energy>
129

$$$$
N#C[C@H](O[C@@H]1O[C@@H](CO[C@@H]2O[C@@H](CO)[C@@H](O)[C@H](O)[C@@H]2O)[C@@H](O)[C@H](O)[C@@H]1O)c1ccccc1
Actelion Java MolfileCreator 2.0

  0  0  0  0  0  0              0 V3000
M  V30 BEGIN CTAB
M  V30 COUNTS 59 61 0 0 0
M  V30 BEGIN ATOM
M  V30 1 O -0.08 1.5224 -0.7209 0
M  V30 2 C 0.9781 2.2346 -0.0765 0 CFG=1
M  V30 3 C 0.3315 0.9739 -1.9953 0 CFG=2
M  V30 4 O 2.0704 1.3745 0.242 0
M  V30 5 C 1.4327 3.4295 -0.9462 0 CFG=1
M  V30 6 C 0.6095 2.1303 -2.9642 0 CFG=2
M  V30 7 C -0.7792 0.0389 -2.4843 0
M  V30 8 C 1.707 0.3624 1.2008 0 CFG=1
M  V30 9 O 2.5789 4.0732 -0.3795 0
M  V30 10 C 1.7268 3.0239 -2.4006 0 CFG=2
M  V30 11 O -0.5732 2.9093 -3.171 0
M  V30 12 O -0.797 -1.0962 -1.6091 0
M  V30 13 C 1.8308 -0.9866 0.5982 0
M  V30 14 C 2.5946 0.5073 2.4263 0
M  V30 15 O 2.9918 2.3487 -2.459 0
M  V30 16 C -1.806 -2.046 -1.9608 0 CFG=2
M  V30 17 N 1.8773 -2.0472 0.1198 0
M  V30 18 C 3.9473 0.8699 2.3126 0
M  V30 19 C 2.0755 0.241 3.705 0
M  V30 20 O -3.115 -1.5226 -1.7511 0
M  V30 21 C -1.5714 -3.3608 -1.1855 0 CFG=1
M  V30 22 C 4.7526 0.9799 3.4474 0
M  V30 23 C 2.8841 0.3509 4.8379 0
M  V30 24 C -3.4139 -1.3006 -0.3634 0 CFG=2
M  V30 25 O -0.2107 -3.8033 -1.3106 0
M  V30 26 C -1.9482 -3.2426 0.2993 0 CFG=2
M  V30 27 C 4.2205 0.7219 4.7087 0
M  V30 28 C -3.3328 -2.6073 0.4559 0 CFG=2
M  V30 29 C -4.8055 -0.66 -0.3007 0
M  V30 30 O -0.9816 -2.4782 1.0356 0
M  V30 31 O -4.3214 -3.5509 0.0253 0
M  V30 32 O -5.2262 -0.4294 1.0383 0
M  V30 33 H 0.5895 2.6458 0.8638 0
M  V30 34 H 1.2376 0.3734 -1.8546 0
M  V30 35 H 0.6154 4.1611 -0.9617 0
M  V30 36 H 0.9155 1.7281 -3.9363 0
M  V30 37 H -0.5742 -0.297 -3.5064 0
M  V30 38 H -1.7522 0.5402 -2.4438 0
M  V30 39 H 0.6646 0.4991 1.5196 0
M  V30 40 H 3.309 3.4348 -0.5204 0
M  V30 41 H 1.8287 3.9385 -2.9973 0
M  V30 42 H -1.0659 2.9369 -2.3284 0
M  V30 43 H 3.2806 2.3545 -3.3899 0
M  V30 44 H -1.6983 -2.2673 -3.0296 0
M  V30 45 H 4.3833 1.0702 1.3352 0
M  V30 46 H 1.0367 -0.0597 3.8311 0
M  V30 47 H -2.2093 -4.1338 -1.6311 0
M  V30 48 H 5.7969 1.2646 3.346 0
M  V30 49 H 2.4725 0.1429 5.8225 0
M  V30 50 H -2.6953 -0.5792 0.047 0
M  V30 51 H 0.3582 -3.0169 -1.1595 0
M  V30 52 H -1.9444 -4.2464 0.7414 0
M  V30 53 H 4.8498 0.8058 5.5911 0
M  V30 54 H -3.5126 -2.3932 1.5163 0
M  V30 55 H -5.5512 -1.2942 -0.7922 0
M  V30 56 H -4.8133 0.2928 -0.8426 0
M  V30 57 H -0.1205 -2.9122 0.8594 0
M  V30 58 H -5.1784 -3.235 0.3675 0
M  V30 59 H -4.6949 0.3082 1.3868 0
M  V30 END ATOM
M  V30 BEGIN BOND
M  V30 1 1 1 2
M  V30 2 1 1 3
M  V30 3 1 2 4
M  V30 4 1 2 5
M  V30 5 1 3 6
M  V30 6 1 3 7
M  V30 7 1 4 8
M  V30 8 1 5 9
M  V30 9 1 5 10
M  V30 10 1 6 11
M  V30 11 1 7 12
M  V30 12 1 8 13
M  V30 13 1 8 14
M  V30 14 1 10 15
M  V30 15 1 12 16
M  V30 16 3 13 17
M  V30 17 2 14 18
M  V30 18 1 14 19
M  V30 19 1 16 20
M  V30 20 1 16 21
M  V30 21 1 18 22
M  V30 22 2 19 23
M  V30 23 1 20 24
M  V30 24 1 21 25
M  V30 25 1 21 26
M  V30 26 2 22 27
M  V30 27 1 24 28
M  V30 28 1 24 29
M  V30 29 1 26 30
M  V30 30 1 28 31
M  V30 31 1 29 32
M  V30 32 1 6 10
M  V30 33 1 23 27
M  V30 34 1 26 28
M  V30 35 1 2 33
M  V30 36 1 3 34
M  V30 37 1 5 35
M  V30 38 1 6 36
M  V30 39 1 7 37
M  V30 40 1 7 38
M  V30 41 1 8 39
M  V30 42 1 9 40
M  V30 43 1 10 41
M  V30 44 1 11 42
M  V30 45 1 15 43
M  V30 46 1 16 44
M  V30 47 1 18 45
M  V30 48 1 19 46
M  V30 49 1 21 47
M  V30 50 1 22 48
M  V30 51 1 23 49
M  V30 52 1 24 50
M  V30 53 1 25 51
M  V30 54 1 26 52
M  V30 55 1 27 53
M  V30 56 1 28 54
M  V30 57 1 29 55
M  V30 58 1 29 56
M  V30 59 1 30 57
M  V30 60 1 31 58
M  V30 61 1 32 59
M  V30 END BOND
M  V30 BEGIN COLLECTION
M  V30 MDLV30/STEABS ATOMS=(11 2 3 5 6 8 10 16 21 24 26 28)
M  V30 END COLLECTION
M  V30 END CTAB
M  END
>  <level_0>
7611

>  <index>
7611

>  <NO.>
7612

>  <Name>


>  <SMILES>
N#C[C@H](O[C@@H]1O[C@@H](CO[C@@H]2O[C@@H](CO)[C@@H](O)[C@H](O)[C@@H]2O)[C@@H](O)[C@H](O)[C@@H]1O)c1ccccc1

>  <logBB>


>  <Class>
-1

>  <MW>
457.16

>  <nHBAcc>
12

>  <nHBDon>
7

>  <SLogP>
-3.11

>  <TopoPSA>
202.32

>  <MMFF94 Energy>
238.3

$$$$
N=C(NCCCCNC(=N)NC(=N)Nc1ccc(Cl)cc1)NC(=N)Nc1ccc(Cl)cc1
Actelion Java MolfileCreator 2.0

  0  0  0  0  0  0              0 V3000
M  V30 BEGIN CTAB
M  V30 COUNTS 58 59 0 0 0
M  V30 BEGIN ATOM
M  V30 1 Cl 0.7871 0.236 7.339 0
M  V30 2 C 1.2798 0.1592 5.694 0
M  V30 3 C 0.329 6.0E-4 4.6915 0
M  V30 4 C 2.6296 0.2552 5.3685 0
M  V30 5 C 0.7325 -0.0576 3.3538 0
M  V30 6 C 3.0285 0.1944 4.029 0
M  V30 7 C 2.0856 0.0353 3.0026 0
M  V30 8 N 2.5197 0.0241 1.6656 0
M  V30 9 C 1.818 0.3948 0.5547 0
M  V30 10 N 0.933 1.347 0.5213 0
M  V30 11 N 2.1638 -0.3057 -0.5661 0
M  V30 12 C 1.859 -0.1138 -1.8765 0
M  V30 13 N 1.2079 0.9142 -2.3164 0
M  V30 14 N 2.2845 -1.1012 -2.7036 0
M  V30 15 C 2.5763 -0.9086 -4.1127 0
M  V30 16 C 1.971 -2.0115 -4.9815 0
M  V30 17 C 0.5907 -1.6808 -5.566 0
M  V30 18 C -0.5949 -1.9911 -4.6553 0
M  V30 19 N -0.7099 -1.0408 -3.5776 0
M  V30 20 C -1.7902 -0.981 -2.7548 0
M  V30 21 N -2.837 -1.7174 -2.9362 0
M  V30 22 N -1.6384 -0.0985 -1.7271 0
M  V30 23 C -2.4874 0.3005 -0.7304 0
M  V30 24 N -3.7383 -0.0448 -0.7377 0
M  V30 25 N -1.8925 1.0861 0.2198 0
M  V30 26 C -2.3281 1.3719 1.5277 0
M  V30 27 C -3.1313 0.4998 2.2747 0
M  V30 28 C -1.9567 2.5945 2.1088 0
M  V30 29 C -3.5427 0.8321 3.5698 0
M  V30 30 C -2.3633 2.9309 3.4035 0
M  V30 31 C -3.1547 2.046 4.1293 0
M  V30 32 Cl -3.6436 2.4476 5.7279 0
M  V30 33 H -0.7259 -0.0821 4.9402 0
M  V30 34 H 3.3751 0.3825 6.1495 0
M  V30 35 H -0.0279 -0.2062 2.5903 0
M  V30 36 H 4.0873 0.2879 3.7987 0
M  V30 37 H 3.4903 -0.2332 1.5408 0
M  V30 38 H 0.9074 1.75 1.4701 0
M  V30 39 H 2.7142 -1.1306 -0.3941 0
M  V30 40 H 1.0679 1.5276 -1.4902 0
M  V30 41 H 2.3686 -2.048 -2.3582 0
M  V30 42 H 3.6672 -0.9474 -4.2157 0
M  V30 43 H 2.2716 0.0805 -4.4724 0
M  V30 44 H 1.9498 -2.9742 -4.4574 0
M  V30 45 H 2.6452 -2.143 -5.8386 0
M  V30 46 H 0.5567 -0.6367 -5.9004 0
M  V30 47 H 0.4683 -2.296 -6.4674 0
M  V30 48 H -1.5051 -1.958 -5.2665 0
M  V30 49 H -0.5067 -3.0065 -4.2523 0
M  V30 50 H 0.0284 -0.3479 -3.4692 0
M  V30 51 H -3.4945 -1.4321 -2.1846 0
M  V30 52 H -0.7314 0.3474 -1.7355 0
M  V30 53 H -4.21 0.4284 0.0355 0
M  V30 54 H -0.928 1.3827 0.0553 0
M  V30 55 H -3.4183 -0.4701 1.8722 0
M  V30 56 H -1.3533 3.3036 1.5455 0
M  V30 57 H -4.1584 0.1357 4.1334 0
M  V30 58 H -2.0642 3.8833 3.8331 0
M  V30 END ATOM
M  V30 BEGIN BOND
M  V30 1 1 1 2
M  V30 2 2 2 3
M  V30 3 1 2 4
M  V30 4 1 3 5
M  V30 5 2 4 6
M  V30 6 2 5 7
M  V30 7 1 7 8
M  V30 8 1 8 9
M  V30 9 2 9 10
M  V30 10 1 9 11
M  V30 11 1 11 12
M  V30 12 2 12 13
M  V30 13 1 12 14
M  V30 14 1 14 15
M  V30 15 1 15 16
M  V30 16 1 16 17
M  V30 17 1 17 18
M  V30 18 1 18 19
M  V30 19 1 19 20
M  V30 20 2 20 21
M  V30 21 1 20 22
M  V30 22 1 22 23
M  V30 23 2 23 24
M  V30 24 1 23 25
M  V30 25 1 25 26
M  V30 26 2 26 27
M  V30 27 1 26 28
M  V30 28 1 27 29
M  V30 29 2 28 30
M  V30 30 2 29 31
M  V30 31 1 31 32
M  V30 32 1 6 7
M  V30 33 1 30 31
M  V30 34 1 3 33
M  V30 35 1 4 34
M  V30 36 1 5 35
M  V30 37 1 6 36
M  V30 38 1 8 37
M  V30 39 1 10 38
M  V30 40 1 11 39
M  V30 41 1 13 40
M  V30 42 1 14 41
M  V30 43 1 15 42
M  V30 44 1 15 43
M  V30 45 1 16 44
M  V30 46 1 16 45
M  V30 47 1 17 46
M  V30 48 1 17 47
M  V30 49 1 18 48
M  V30 50 1 18 49
M  V30 51 1 19 50
M  V30 52 1 21 51
M  V30 53 1 22 52
M  V30 54 1 24 53
M  V30 55 1 25 54
M  V30 56 1 27 55
M  V30 57 1 28 56
M  V30 58 1 29 57
M  V30 59 1 30 58
M  V30 END BOND
M  V30 END CTAB
M  END
>  <level_0>
7612

>  <index>
7612

>  <NO.>
7613

>  <Name>


>  <SMILES>
N=C(NCCCCNC(=N)NC(=N)Nc1ccc(Cl)cc1)NC(=N)Nc1ccc(Cl)cc1

>  <logBB>


>  <Class>
-1

>  <MW>
476.17

>  <nHBAcc>
4

>  <nHBDon>
10

>  <SLogP>
3.4

>  <TopoPSA>
167.58

>  <MMFF94 Energy>
-334.47

$$$$
N=c1nc2n(cc1F)[C@H]1O[C@@H](CO)[C@H](O)[C@H]1O2
Actelion Java MolfileCreator 2.0

  0  0  0  0  0  0              0 V3000
M  V30 BEGIN CTAB
M  V30 COUNTS 27 29 0 0 0
M  V30 BEGIN ATOM
M  V30 1 F -4.1338 0.8905 -1.5385 0
M  V30 2 C -3.1524 0.2099 -0.9203 0
M  V30 3 C -3.5111 -0.5599 0.3153 0
M  V30 4 C -1.8888 0.1828 -1.3525 0
M  V30 5 N -2.528 -1.2735 0.9711 0
M  V30 6 N -4.6985 -0.5999 0.8152 0
M  V30 7 N -0.9575 -0.5382 -0.6537 0
M  V30 8 C -1.346 -1.2213 0.4658 0
M  V30 9 C 0.4225 -0.7751 -0.9567 0 CFG=1
M  V30 10 O -0.2935 -1.8795 1.0314 0
M  V30 11 O 1.161 0.4411 -1.1013 0
M  V30 12 C 0.886 -1.4844 0.312 0 CFG=2
M  V30 13 C 2.197 0.4242 -0.0925 0 CFG=2
M  V30 14 C 1.641 -0.3998 1.0577 0 CFG=2
M  V30 15 C 2.5408 1.8558 0.304 0
M  V30 16 O 2.6652 -0.9341 1.8823 0
M  V30 17 O 3.0285 2.5644 -0.8352 0
M  V30 18 H -1.5496 0.7092 -2.2363 0
M  V30 19 H -5.33 -0.034 0.2406 0
M  V30 20 H 0.542 -1.3959 -1.8509 0
M  V30 21 H 1.4991 -2.3676 0.1048 0
M  V30 22 H 3.0799 -0.0508 -0.5393 0
M  V30 23 H 0.9675 0.1934 1.6882 0
M  V30 24 H 3.3116 1.8803 1.0796 0
M  V30 25 H 1.6564 2.3909 0.6649 0
M  V30 26 H 2.23 -1.4505 2.5877 0
M  V30 27 H 2.3722 2.4244 -1.5434 0
M  V30 END ATOM
M  V30 BEGIN BOND
M  V30 1 1 1 2
M  V30 2 1 2 3
M  V30 3 2 2 4
M  V30 4 1 3 5
M  V30 5 2 3 6
M  V30 6 1 4 7
M  V30 7 2 5 8
M  V30 8 1 7 9
M  V30 9 1 8 10
M  V30 10 1 9 11
M  V30 11 1 9 12
M  V30 12 1 11 13
M  V30 13 1 12 14
M  V30 14 1 13 15
M  V30 15 1 14 16
M  V30 16 1 15 17
M  V30 17 1 7 8
M  V30 18 1 10 12
M  V30 19 1 13 14
M  V30 20 1 4 18
M  V30 21 1 6 19
M  V30 22 1 9 20
M  V30 23 1 12 21
M  V30 24 1 13 22
M  V30 25 1 14 23
M  V30 26 1 15 24
M  V30 27 1 15 25
M  V30 28 1 16 26
M  V30 29 1 17 27
M  V30 END BOND
M  V30 BEGIN COLLECTION
M  V30 MDLV30/STEABS ATOMS=(4 9 12 13 14)
M  V30 END COLLECTION
M  V30 END CTAB
M  END
>  <level_0>
7615

>  <index>
7615

>  <NO.>
7616

>  <Name>
(2s,4s,5s,6r)-11-fluoro-4-(hydroxymethyl)-10-imino-3,7-dioxa-1,9-diazatricyclo[6.4.0.02,6]dodeca-8,11-dien-5-ol

>  <SMILES>
N=c1nc2n(cc1F)[C@H]1O[C@@H](CO)[C@H](O)[C@H]1O2

>  <logBB>


>  <Class>
1

>  <MW>
243.07

>  <nHBAcc>
6

>  <nHBDon>
3

>  <SLogP>
-1.49

>  <TopoPSA>
100.59

>  <MMFF94 Energy>
27.107

$$$$
NC1=NC(=O)N([C@H]2CS[C@H](CO)O2)CC1
Actelion Java MolfileCreator 2.0

  0  0  0  0  0  0              0 V3000
M  V30 BEGIN CTAB
M  V30 COUNTS 28 29 0 0 0
M  V30 BEGIN ATOM
M  V30 1 S -1.859 1.6972 -0.8887 0
M  V30 2 C -0.1511 2.149 -1.2815 0 CFG=1
M  V30 3 C -1.591 0.0307 -1.4984 0
M  V30 4 O 0.6691 0.9781 -1.3577 0
M  V30 5 C -0.084 2.9053 -2.618 0
M  V30 6 C -0.1024 -0.2242 -1.2275 0 CFG=1
M  V30 7 O -0.8231 4.1244 -2.5888 0
M  V30 8 N 0.1662 -0.8558 0.0601 0
M  V30 9 C -0.1383 -2.2057 0.1863 0
M  V30 10 C 0.4447 -0.0794 1.2497 0
M  V30 11 O -0.5181 -2.8527 -0.7864 0
M  V30 12 N -0.0407 -2.7839 1.4257 0
M  V30 13 C 1.3072 -0.8857 2.1905 0
M  V30 14 C 0.6201 -2.207 2.376 0
M  V30 15 N 0.7238 -2.8237 3.5846 0
M  V30 16 H 0.227 2.7917 -0.4801 0
M  V30 17 H -1.7837 0.038 -2.5759 0
M  V30 18 H -2.2604 -0.6921 -1.0256 0
M  V30 19 H -0.4469 2.2893 -3.449 0
M  V30 20 H 0.9581 3.1498 -2.8507 0
M  V30 21 H 0.2679 -0.912 -1.9973 0
M  V30 22 H -1.7255 3.8974 -2.2939 0
M  V30 23 H 0.9703 0.8453 1.0001 0
M  V30 24 H -0.5144 0.1749 1.7155 0
M  V30 25 H 2.298 -1.0735 1.762 0
M  V30 26 H 1.4314 -0.3719 3.1485 0
M  V30 27 H 0.2792 -3.7275 3.695 0
M  V30 28 H 1.2559 -2.4503 4.358 0
M  V30 END ATOM
M  V30 BEGIN BOND
M  V30 1 1 1 2
M  V30 2 1 1 3
M  V30 3 1 2 4
M  V30 4 1 2 5
M  V30 5 1 3 6
M  V30 6 1 5 7
M  V30 7 1 6 8
M  V30 8 1 8 9
M  V30 9 1 8 10
M  V30 10 2 9 11
M  V30 11 1 9 12
M  V30 12 1 10 13
M  V30 13 2 12 14
M  V30 14 1 14 15
M  V30 15 1 4 6
M  V30 16 1 13 14
M  V30 17 1 2 16
M  V30 18 1 3 17
M  V30 19 1 3 18
M  V30 20 1 5 19
M  V30 21 1 5 20
M  V30 22 1 6 21
M  V30 23 1 7 22
M  V30 24 1 10 23
M  V30 25 1 10 24
M  V30 26 1 13 25
M  V30 27 1 13 26
M  V30 28 1 15 27
M  V30 29 1 15 28
M  V30 END BOND
M  V30 BEGIN COLLECTION
M  V30 MDLV30/STEABS ATOMS=(2 2 6)
M  V30 END COLLECTION
M  V30 END CTAB
M  END
>  <level_0>
7621

>  <index>
7621

>  <NO.>
7622

>  <Name>


>  <SMILES>
NC1=NC(=O)N([C@H]2CS[C@H](CO)O2)CC1

>  <logBB>


>  <Class>
1

>  <MW>
231.07

>  <nHBAcc>
5

>  <nHBDon>
2

>  <SLogP>
-0.42

>  <TopoPSA>
88.15

>  <MMFF94 Energy>
-75.905

$$$$
NCC(=O)O
Actelion Java MolfileCreator 2.0

  0  0  0  0  0  0              0 V3000
M  V30 BEGIN CTAB
M  V30 COUNTS 10 9 0 0 0
M  V30 BEGIN ATOM
M  V30 1 O -0.7487 0.3743 -1.423 0
M  V30 2 C -0.6149 0.5104 -0.2165 0
M  V30 3 O -1.402 1.3616 0.4701 0
M  V30 4 C 0.392 -0.2033 0.6739 0
M  V30 5 N 1.2346 -1.1251 -0.1111 0
M  V30 6 H -1.9921 1.7458 -0.212 0
M  V30 7 H 1.0309 0.5424 1.1555 0
M  V30 8 H -0.1485 -0.7734 1.4347 0
M  V30 9 H 1.6797 -0.5882 -0.8587 0
M  V30 10 H 0.6181 -1.7726 -0.6073 0
M  V30 END ATOM
M  V30 BEGIN BOND
M  V30 1 2 1 2
M  V30 2 1 2 3
M  V30 3 1 2 4
M  V30 4 1 4 5
M  V30 5 1 3 6
M  V30 6 1 4 7
M  V30 7 1 4 8
M  V30 8 1 5 9
M  V30 9 1 5 10
M  V30 END BOND
M  V30 END CTAB
M  END
>  <level_0>
7622

>  <index>
7622

>  <NO.>
7623

>  <Name>
glycine

>  <SMILES>
NCC(=O)O

>  <logBB>


>  <Class>
1

>  <MW>
75.03

>  <nHBAcc>
2

>  <nHBDon>
2

>  <SLogP>
-0.97

>  <TopoPSA>
63.32

>  <MMFF94 Energy>
20.93

$$$$
NCCC[C@](N)(C(=O)O)C(F)F
Actelion Java MolfileCreator 2.0

  0  0  0  0  0  0              0 V3000
M  V30 BEGIN CTAB
M  V30 COUNTS 24 23 0 0 0
M  V30 BEGIN ATOM
M  V30 1 F -1.326 1.0139 -2.4972 0
M  V30 2 C -0.9301 1.8632 -1.5189 0
M  V30 3 F -1.9538 2.7398 -1.3262 0
M  V30 4 C -0.6116 1.1206 -0.2066 0 CFG=1
M  V30 5 N -0.213 2.0916 0.8758 0
M  V30 6 C -1.9075 0.3909 0.1787 0
M  V30 7 C 0.5292 0.1065 -0.4395 0
M  V30 8 O -2.3794 -0.6066 -0.3416 0
M  V30 9 O -2.5402 0.9415 1.2436 0
M  V30 10 C 0.9162 -0.7304 0.7919 0
M  V30 11 C 2.0774 -1.6898 0.517 0
M  V30 12 N 1.7446 -2.6632 -0.5132 0
M  V30 13 H -0.0678 2.4283 -1.8866 0
M  V30 14 H -0.9733 2.7786 0.9432 0
M  V30 15 H -0.2712 1.5985 1.7698 0
M  V30 16 H 0.2376 -0.5723 -1.2512 0
M  V30 17 H 1.4205 0.6426 -0.793 0
M  V30 18 H -3.3449 0.3886 1.3438 0
M  V30 19 H 1.2191 -0.0709 1.6129 0
M  V30 20 H 0.0495 -1.3009 1.1466 0
M  V30 21 H 2.3337 -2.2188 1.4415 0
M  V30 22 H 2.9628 -1.1247 0.2065 0
M  V30 23 H 2.5058 -3.3342 -0.6085 0
M  V30 24 H 0.923 -3.1994 -0.2353 0
M  V30 END ATOM
M  V30 BEGIN BOND
M  V30 1 1 1 2
M  V30 2 1 2 3
M  V30 3 1 2 4
M  V30 4 1 4 5
M  V30 5 1 4 6
M  V30 6 1 4 7
M  V30 7 2 6 8
M  V30 8 1 6 9
M  V30 9 1 7 10
M  V30 10 1 10 11
M  V30 11 1 11 12
M  V30 12 1 2 13
M  V30 13 1 5 14
M  V30 14 1 5 15
M  V30 15 1 7 16
M  V30 16 1 7 17
M  V30 17 1 9 18
M  V30 18 1 10 19
M  V30 19 1 10 20
M  V30 20 1 11 21
M  V30 21 1 11 22
M  V30 22 1 12 23
M  V30 23 1 12 24
M  V30 END BOND
M  V30 BEGIN COLLECTION
M  V30 MDLV30/STEABS ATOMS=(1 4)
M  V30 END COLLECTION
M  V30 END CTAB
M  END
>  <level_0>
7623

>  <index>
7623

>  <NO.>
7624

>  <Name>
l-eflornithine

>  <SMILES>
NCCC[C@](N)(C(=O)O)C(F)F

>  <logBB>


>  <Class>
1

>  <MW>
182.09

>  <nHBAcc>
3

>  <nHBDon>
3

>  <SLogP>
-0.23

>  <TopoPSA>
89.34

>  <MMFF94 Energy>
49.418

$$$$
NC[C@@H]1O[C@@H](O[C@H]2[C@@H](N)C[C@H](N)[C@H](O)[C@H]2O[C@@H]2O[C@H](CO)[C@H](OC[C@@H]3O[C@@H](CN)[C@@H](O)[C@@H](O)[C@@H]3N)[C@H]2O)[C@@H](N)[C@H](O)[C@@H]1O
Actelion Java MolfileCreator 2.0

  0  0  0  0  0  0              0 V3000
M  V30 BEGIN CTAB
M  V30 COUNTS 91 94 0 0 0
M  V30 BEGIN ATOM
M  V30 1 O 3.4973 -1.3501 0.3969 0
M  V30 2 C 2.4308 -0.6293 1.0088 0 CFG=1
M  V30 3 C 4.8025 -1.025 0.9147 0 CFG=2
M  V30 4 O 2.271 -1.0286 2.3773 0
M  V30 5 C 2.6324 0.9055 0.9197 0 CFG=1
M  V30 6 C 5.1141 0.4801 0.8101 0 CFG=2
M  V30 7 C 5.8347 -1.9085 0.1806 0
M  V30 8 C 1.3938 -2.1731 2.5137 0 CFG=2
M  V30 9 N 1.588 1.7153 1.6083 0
M  V30 10 C 4.0069 1.2806 1.4968 0 CFG=1
M  V30 11 O 5.2097 0.9157 -0.5561 0
M  V30 12 N 5.7901 -1.7819 -1.2809 0
M  V30 13 C -0.0495 -1.7004 2.8053 0 CFG=2
M  V30 14 C 1.8954 -3.055 3.687 0 CFG=1
M  V30 15 O 4.2398 2.6837 1.2845 0
M  V30 16 O -0.5132 -0.8063 1.7725 0
M  V30 17 C -0.1143 -0.9255 4.1329 0 CFG=1
M  V30 18 N 3.2788 -3.5094 3.4691 0
M  V30 19 C 1.8273 -2.3041 5.0263 0
M  V30 20 C -1.4058 -1.44 0.8556 0 CFG=2
M  V30 21 O -1.4816 -0.559 4.396 0
M  V30 22 C 0.4328 -1.7401 5.3263 0 CFG=2
M  V30 23 O -0.8027 -2.5594 0.2026 0
M  V30 24 C -1.7725 -0.442 -0.2385 0 CFG=2
M  V30 25 N -0.4994 -2.8021 5.7447 0
M  V30 26 C -1.1557 -2.5055 -1.1976 0 CFG=1
M  V30 27 O -2.8134 0.4368 0.1762 0
M  V30 28 C -2.1787 -1.3677 -1.3713 0 CFG=2
M  V30 29 C 0.1257 -2.3539 -2.028 0
M  V30 30 O -2.0679 -0.7341 -2.6462 0
M  V30 31 O -0.1369 -2.4171 -3.4236 0
M  V30 32 C -3.2603 -0.0483 -3.0714 0
M  V30 33 C -2.8403 1.2383 -3.8163 0 CFG=2
M  V30 34 O -2.2682 2.1999 -2.9062 0
M  V30 35 C -3.939 1.9006 -4.677 0 CFG=1
M  V30 36 C -3.2183 2.8497 -2.0372 0 CFG=2
M  V30 37 N -4.6123 0.9629 -5.5925 0
M  V30 38 C -4.9748 2.6455 -3.8067 0 CFG=1
M  V30 39 C -4.292 3.6087 -2.8283 0 CFG=2
M  V30 40 C -2.4317 3.7693 -1.0852 0
M  V30 41 O -5.8804 3.3883 -4.644 0
M  V30 42 O -3.7292 4.71 -3.5548 0
M  V30 43 N -1.4735 2.9788 -0.2783 0
M  V30 44 H 1.5303 -0.8665 0.4356 0
M  V30 45 H 4.8265 -1.3099 1.9732 0
M  V30 46 H 2.6081 1.1998 -0.1371 0
M  V30 47 H 6.0823 0.7029 1.2727 0
M  V30 48 H 5.6373 -2.9594 0.4211 0
M  V30 49 H 6.8455 -1.6758 0.5319 0
M  V30 50 H 1.4227 -2.7672 1.5915 0
M  V30 51 H 0.6723 1.4016 1.2712 0
M  V30 52 H 1.5848 1.432 2.5925 0
M  V30 53 H 4.0366 1.1014 2.5789 0
M  V30 54 H 5.2134 1.8949 -0.5036 0
M  V30 55 H 4.8403 -2.0233 -1.5746 0
M  V30 56 H 5.8422 -0.7764 -1.495 0
M  V30 57 H -0.7224 -2.5659 2.8694 0
M  V30 58 H 1.265 -3.9503 3.7456 0
M  V30 59 H 3.374 3.1037 1.4744 0
M  V30 60 H 0.442 0.0155 4.052 0
M  V30 61 H 3.8788 -2.6871 3.4108 0
M  V30 62 H 3.3495 -3.9569 2.5542 0
M  V30 63 H 2.5408 -1.4683 5.02 0
M  V30 64 H 2.1451 -2.9646 5.8443 0
M  V30 65 H -2.3003 -1.7736 1.3972 0
M  V30 66 H -1.7765 -0.0507 3.6167 0
M  V30 67 H 0.5108 -1.0654 6.188 0
M  V30 68 H -0.9058 0.1638 -0.5313 0
M  V30 69 H -0.6345 -3.4944 5.0129 0
M  V30 70 H -1.4163 -2.3559 5.8615 0
M  V30 71 H -1.6318 -3.4554 -1.468 0
M  V30 72 H -2.4013 1.3312 0.2368 0
M  V30 73 H -3.1948 -1.7568 -1.222 0
M  V30 74 H 0.6352 -1.4097 -1.8072 0
M  V30 75 H 0.8303 -3.1538 -1.7762 0
M  V30 76 H -0.7769 -1.6984 -3.6093 0
M  V30 77 H -3.788 -0.7364 -3.7386 0
M  V30 78 H -3.9143 0.1659 -2.2229 0
M  V30 79 H -2.0159 0.9626 -4.4871 0
M  V30 80 H -3.4528 2.655 -5.3109 0
M  V30 81 H -3.726 2.0948 -1.4314 0
M  V30 82 H -5.4241 1.4295 -6.0054 0
M  V30 83 H -3.9893 0.728 -6.3659 0
M  V30 84 H -5.5773 1.9232 -3.2424 0
M  V30 85 H -5.0336 4.0345 -2.1416 0
M  V30 86 H -3.1132 4.2967 -0.41 0
M  V30 87 H -1.8602 4.5113 -1.6537 0
M  V30 88 H -5.3336 3.8624 -5.2965 0
M  V30 89 H -4.4787 5.2812 -3.8057 0
M  V30 90 H -0.8316 2.5609 -0.964 0
M  V30 91 H -0.8894 3.639 0.2427 0
M  V30 END ATOM
M  V30 BEGIN BOND
M  V30 1 1 1 2
M  V30 2 1 1 3
M  V30 3 1 2 4
M  V30 4 1 2 5
M  V30 5 1 3 6
M  V30 6 1 3 7
M  V30 7 1 4 8
M  V30 8 1 5 9
M  V30 9 1 5 10
M  V30 10 1 6 11
M  V30 11 1 7 12
M  V30 12 1 8 13
M  V30 13 1 8 14
M  V30 14 1 10 15
M  V30 15 1 13 16
M  V30 16 1 13 17
M  V30 17 1 14 18
M  V30 18 1 14 19
M  V30 19 1 16 20
M  V30 20 1 17 21
M  V30 21 1 17 22
M  V30 22 1 20 23
M  V30 23 1 20 24
M  V30 24 1 22 25
M  V30 25 1 23 26
M  V30 26 1 24 27
M  V30 27 1 24 28
M  V30 28 1 26 29
M  V30 29 1 28 30
M  V30 30 1 29 31
M  V30 31 1 30 32
M  V30 32 1 32 33
M  V30 33 1 33 34
M  V30 34 1 33 35
M  V30 35 1 34 36
M  V30 36 1 35 37
M  V30 37 1 35 38
M  V30 38 1 36 39
M  V30 39 1 36 40
M  V30 40 1 38 41
M  V30 41 1 39 42
M  V30 42 1 40 43
M  V30 43 1 6 10
M  V30 44 1 19 22
M  V30 45 1 26 28
M  V30 46 1 38 39
M  V30 47 1 2 44
M  V30 48 1 3 45
M  V30 49 1 5 46
M  V30 50 1 6 47
M  V30 51 1 7 48
M  V30 52 1 7 49
M  V30 53 1 8 50
M  V30 54 1 9 51
M  V30 55 1 9 52
M  V30 56 1 10 53
M  V30 57 1 11 54
M  V30 58 1 12 55
M  V30 59 1 12 56
M  V30 60 1 13 57
M  V30 61 1 14 58
M  V30 62 1 15 59
M  V30 63 1 17 60
M  V30 64 1 18 61
M  V30 65 1 18 62
M  V30 66 1 19 63
M  V30 67 1 19 64
M  V30 68 1 20 65
M  V30 69 1 21 66
M  V30 70 1 22 67
M  V30 71 1 24 68
M  V30 72 1 25 69
M  V30 73 1 25 70
M  V30 74 1 26 71
M  V30 75 1 27 72
M  V30 76 1 28 73
M  V30 77 1 29 74
M  V30 78 1 29 75
M  V30 79 1 31 76
M  V30 80 1 32 77
M  V30 81 1 32 78
M  V30 82 1 33 79
M  V30 83 1 35 80
M  V30 84 1 36 81
M  V30 85 1 37 82
M  V30 86 1 37 83
M  V30 87 1 38 84
M  V30 88 1 39 85
M  V30 89 1 40 86
M  V30 90 1 40 87
M  V30 91 1 41 88
M  V30 92 1 42 89
M  V30 93 1 43 90
M  V30 94 1 43 91
M  V30 END BOND
M  V30 BEGIN COLLECTION
M  V30 MDLV30/STEABS ATOMS=(19 2 3 5 6 8 10 13 14 17 20 22 24 26 28 33 35 36 38 39)
M  V30 END COLLECTION
M  V30 END CTAB
M  END
>  <level_0>
7630

>  <index>
7630

>  <NO.>
7631

>  <Name>


>  <SMILES>
NC[C@@H]1O[C@@H](O[C@H]2[C@@H](N)C[C@H](N)[C@H](O)[C@H]2O[C@@H]2O[C@H](CO)[C@H](OC[C@@H]3O[C@@H](CN)[C@@H](O)[C@@H](O)[C@@H]3N)[C@H]2O)[C@@H](N)[C@H](O)[C@@H]1O

>  <logBB>


>  <Class>
-1

>  <MW>
628.33

>  <nHBAcc>
19

>  <nHBDon>
13

>  <SLogP>
-8.85

>  <TopoPSA>
353.11

>  <MMFF94 Energy>
375.97

$$$$
NNC(=O)NNN1C(=O)c2cc(S(=O)(=O)O)cc3c(N)c(S(=O)(=O)O)cc(c23)C1=O
Actelion Java MolfileCreator 2.0

  0  0  0  0  0  0              0 V3000
M  V30 BEGIN CTAB
M  V30 COUNTS 42 44 0 0 0
M  V30 BEGIN ATOM
M  V30 1 S -4.3914 -2.3182 -1.407 0
M  V30 2 O -5.2718 -1.1728 -1.466 0
M  V30 3 O -4.7803 -3.541 -0.7357 0
M  V30 4 O -4.0815 -2.7139 -2.9406 0
M  V30 5 C -2.8296 -1.7658 -0.7645 0
M  V30 6 C -2.3248 -2.1966 0.4762 0
M  V30 7 C -2.1106 -0.8835 -1.5749 0
M  V30 8 N -3.0593 -3.0512 1.2987 0
M  V30 9 C -1.0855 -1.6416 0.934 0
M  V30 10 C -0.8812 -0.3843 -1.1449 0
M  V30 11 C -0.3571 -0.738 0.103 0
M  V30 12 C -0.528 -1.95 2.1976 0
M  V30 13 C -0.1413 0.5342 -2.0396 0
M  V30 14 C 0.8712 -0.2074 0.5433 0
M  V30 15 C 0.6895 -1.4057 2.6152 0
M  V30 16 O -0.5985 0.8001 -3.1495 0
M  V30 17 N 1.0641 1.0408 -1.5529 0
M  V30 18 C 1.6335 0.7373 -0.3112 0
M  V30 19 C 1.3998 -0.5428 1.7936 0
M  V30 20 S 1.3527 -1.8467 4.1968 0
M  V30 21 N 1.786 1.8853 -2.4518 0
M  V30 22 O 2.6859 1.2119 0.1194 0
M  V30 23 O 0.8883 -3.1772 4.5228 0
M  V30 24 O 1.1474 -0.7229 5.0795 0
M  V30 25 O 2.9383 -1.9999 3.9466 0
M  V30 26 N 2.2301 3.0605 -1.8345 0
M  V30 27 C 1.8103 4.2941 -2.2712 0
M  V30 28 O 1.0251 4.4537 -3.2019 0
M  V30 29 N 2.332 5.3655 -1.5724 0
M  V30 30 N 3.2316 5.2636 -0.4952 0
M  V30 31 H -4.8651 -2.4694 -3.4778 0
M  V30 32 H -2.5135 -0.5771 -2.5405 0
M  V30 33 H -2.6534 -3.5079 2.1025 0
M  V30 34 H -3.8693 -3.5408 0.9068 0
M  V30 35 H -1.0445 -2.6174 2.8839 0
M  V30 36 H 2.3491 -0.125 2.1268 0
M  V30 37 H 1.1323 2.1544 -3.2097 0
M  V30 38 H 3.2578 -2.7459 4.4974 0
M  V30 39 H 2.8825 2.9794 -1.0621 0
M  V30 40 H 2.0269 6.2852 -1.8868 0
M  V30 41 H 2.8173 4.6953 0.2469 0
M  V30 42 H 4.0873 4.8002 -0.8091 0
M  V30 END ATOM
M  V30 BEGIN BOND
M  V30 1 2 1 2
M  V30 2 2 1 3
M  V30 3 1 1 4
M  V30 4 1 1 5
M  V30 5 2 5 6
M  V30 6 1 5 7
M  V30 7 1 6 8
M  V30 8 1 6 9
M  V30 9 2 7 10
M  V30 10 1 9 11
M  V30 11 2 9 12
M  V30 12 1 10 13
M  V30 13 2 11 14
M  V30 14 1 12 15
M  V30 15 2 13 16
M  V30 16 1 13 17
M  V30 17 1 14 18
M  V30 18 1 14 19
M  V30 19 1 15 20
M  V30 20 1 17 21
M  V30 21 2 18 22
M  V30 22 2 20 23
M  V30 23 2 20 24
M  V30 24 1 20 25
M  V30 25 1 21 26
M  V30 26 1 26 27
M  V30 27 2 27 28
M  V30 28 1 27 29
M  V30 29 1 29 30
M  V30 30 1 10 11
M  V30 31 2 15 19
M  V30 32 1 17 18
M  V30 33 1 4 31
M  V30 34 1 7 32
M  V30 35 1 8 33
M  V30 36 1 8 34
M  V30 37 1 12 35
M  V30 38 1 19 36
M  V30 39 1 21 37
M  V30 40 1 25 38
M  V30 41 1 26 39
M  V30 42 1 29 40
M  V30 43 1 30 41
M  V30 44 1 30 42
M  V30 END BOND
M  V30 END CTAB
M  END
>  <level_0>
7639

>  <index>
7639

>  <NO.>
7640

>  <Name>


>  <SMILES>
NNC(=O)NNN1C(=O)c2cc(S(=O)(=O)O)cc3c(N)c(S(=O)(=O)O)cc(c23)C1=O

>  <logBB>


>  <Class>
-1

>  <MW>
460.01

>  <nHBAcc>
10

>  <nHBDon>
7

>  <SLogP>
-1.9

>  <TopoPSA>
251.32

>  <MMFF94 Energy>
56.465

$$$$
O=C(COCCOCCOCC(=O)Nc1c(I)cc(I)c(C(=O)O)c1I)Nc1c(I)cc(I)c(C(=O)O)c1I
Actelion Java MolfileCreator 2.0

  0  0  0  0  0  0              0 V3000
M  V30 BEGIN CTAB
M  V30 COUNTS 57 58 0 0 0
M  V30 BEGIN ATOM
M  V30 1 I -0.3434 -2.6636 -4.0403 0
M  V30 2 C -0.1877 -0.5554 -3.6983 0
M  V30 3 C 0.8775 -0.0278 -2.9346 0
M  V30 4 C -1.0905 0.3203 -4.3355 0
M  V30 5 N 1.7896 -0.8453 -2.2324 0
M  V30 6 C 1.0637 1.3663 -2.8942 0
M  V30 7 C -0.9033 1.708 -4.259 0
M  V30 8 C -2.256 -0.2081 -5.0519 0
M  V30 9 C 1.4113 -1.6572 -1.1735 0
M  V30 10 I 2.6394 2.2575 -1.8192 0
M  V30 11 C 0.1865 2.2279 -3.5573 0
M  V30 12 I -2.1963 3.1029 -5.1554 0
M  V30 13 O -3.3367 -0.4684 -4.5628 0
M  V30 14 O -1.9739 -0.3647 -6.3557 0
M  V30 15 O 0.2671 -1.7684 -0.7452 0
M  V30 16 C 2.5963 -2.3922 -0.5568 0
M  V30 17 O 3.3957 -1.4633 0.1712 0
M  V30 18 C 3.057 -1.4663 1.5653 0
M  V30 19 C 3.4806 -0.147 2.2056 0
M  V30 20 O 2.4309 0.8137 2.0264 0
M  V30 21 C 2.7899 2.0916 2.5703 0
M  V30 22 C 1.5198 2.925 2.7195 0
M  V30 23 O 0.7329 2.3376 3.765 0
M  V30 24 C -0.612 2.799 3.7779 0
M  V30 25 C -1.589 1.9384 2.9672 0
M  V30 26 O -2.8006 2.1426 2.9915 0
M  V30 27 N -0.9692 0.942 2.2364 0
M  V30 28 C -1.675 0.012 1.4456 0
M  V30 29 C -1.7053 -1.345 1.8331 0
M  V30 30 C -2.3047 0.3985 0.2474 0
M  V30 31 I -0.7568 -1.9334 3.6564 0
M  V30 32 C -2.3773 -2.2911 1.0362 0
M  V30 33 I -2.2362 2.3621 -0.5131 0
M  V30 34 C -2.973 -0.546 -0.5404 0
M  V30 35 C -3.0087 -1.8879 -0.1491 0
M  V30 36 C -2.3989 -3.705 1.4292 0
M  V30 37 I -4.0164 -3.2172 -1.4291 0
M  V30 38 O -1.542 -4.538 1.2123 0
M  V30 39 O -3.5263 -3.9751 2.1107 0
M  V30 40 H 2.7703 -0.5812 -2.2557 0
M  V30 41 H 0.3368 3.3044 -3.5037 0
M  V30 42 H -2.8012 -0.7215 -6.7435 0
M  V30 43 H 2.2519 -3.23 0.0598 0
M  V30 44 H 3.2103 -2.803 -1.3653 0
M  V30 45 H 3.5987 -2.2975 2.0281 0
M  V30 46 H 1.9801 -1.6135 1.6961 0
M  V30 47 H 3.6233 -0.2984 3.2811 0
M  V30 48 H 4.4043 0.2315 1.7549 0
M  V30 49 H 3.4911 2.5791 1.8861 0
M  V30 50 H 3.2618 1.959 3.5506 0
M  V30 51 H 1.7676 3.9523 3.0048 0
M  V30 52 H 0.9584 2.9289 1.7789 0
M  V30 53 H -0.6795 3.8383 3.4371 0
M  V30 54 H -0.952 2.7593 4.8183 0
M  V30 55 H 0.0039 0.737 2.4623 0
M  V30 56 H -3.4506 -0.2409 -1.4701 0
M  V30 57 H -3.4571 -4.9277 2.3286 0
M  V30 END ATOM
M  V30 BEGIN BOND
M  V30 1 1 1 2
M  V30 2 2 2 3
M  V30 3 1 2 4
M  V30 4 1 3 5
M  V30 5 1 3 6
M  V30 6 2 4 7
M  V30 7 1 4 8
M  V30 8 1 5 9
M  V30 9 1 6 10
M  V30 10 2 6 11
M  V30 11 1 7 12
M  V30 12 2 8 13
M  V30 13 1 8 14
M  V30 14 2 9 15
M  V30 15 1 9 16
M  V30 16 1 16 17
M  V30 17 1 17 18
M  V30 18 1 18 19
M  V30 19 1 19 20
M  V30 20 1 20 21
M  V30 21 1 21 22
M  V30 22 1 22 23
M  V30 23 1 23 24
M  V30 24 1 24 25
M  V30 25 2 25 26
M  V30 26 1 25 27
M  V30 27 1 27 28
M  V30 28 2 28 29
M  V30 29 1 28 30
M  V30 30 1 29 31
M  V30 31 1 29 32
M  V30 32 1 30 33
M  V30 33 2 30 34
M  V30 34 2 32 35
M  V30 35 1 32 36
M  V30 36 1 35 37
M  V30 37 2 36 38
M  V30 38 1 36 39
M  V30 39 1 7 11
M  V30 40 1 34 35
M  V30 41 1 5 40
M  V30 42 1 11 41
M  V30 43 1 14 42
M  V30 44 1 16 43
M  V30 45 1 16 44
M  V30 46 1 18 45
M  V30 47 1 18 46
M  V30 48 1 19 47
M  V30 49 1 19 48
M  V30 50 1 21 49
M  V30 51 1 21 50
M  V30 52 1 22 51
M  V30 53 1 22 52
M  V30 54 1 24 53
M  V30 55 1 24 54
M  V30 56 1 27 55
M  V30 57 1 34 56
M  V30 58 1 39 57
M  V30 END BOND
M  V30 END CTAB
M  END
>  <level_0>
7654

>  <index>
7654

>  <NO.>
7655

>  <Name>
iotroxic acid

>  <SMILES>
O=C(COCCOCCOCC(=O)Nc1c(I)cc(I)c(C(=O)O)c1I)Nc1c(I)cc(I)c(C(=O)O)c1I

>  <logBB>


>  <Class>
-1

>  <MW>
1215.53

>  <nHBAcc>
7

>  <nHBDon>
4

>  <SLogP>
5.34

>  <TopoPSA>
160.49

>  <MMFF94 Energy>
110.69

$$$$
O=C(O)[C@@H]1C(=CCO)O[C@H]2CC(=O)N21
Actelion Java MolfileCreator 2.0

  0  0  0  0  0  0              0 V3000
M  V30 BEGIN CTAB
M  V30 COUNTS 23 24 0 0 0
M  V30 BEGIN ATOM
M  V30 1 O -1.851 1.69 2.5761 0
M  V30 2 C -0.7465 1.5171 2.1211 0
M  V30 3 N -0.114 0.3883 1.7132 0
M  V30 4 C 0.4118 2.3955 1.621 0
M  V30 5 C -0.7281 -0.5928 0.8551 0 CFG=1
M  V30 6 C 0.9578 1.0877 1.0214 0 CFG=2
M  V30 7 C -0.1736 -0.1386 -0.4928 0
M  V30 8 C -0.2999 -2.0322 1.1591 0
M  V30 9 O 0.8209 0.8551 -0.4007 0
M  V30 10 C -0.6148 -0.5566 -1.6896 0
M  V30 11 O -0.6416 -3.0278 0.5354 0
M  V30 12 O 0.5228 -2.1703 2.2222 0
M  V30 13 C -0.1127 -0.0854 -3.0128 0
M  V30 14 O 0.3271 -1.2164 -3.7479 0
M  V30 15 H 1.0134 2.837 2.4191 0
M  V30 16 H 0.1128 3.1582 0.8984 0
M  V30 17 H -1.8182 -0.507 0.9066 0
M  V30 18 H 1.9526 0.8025 1.3809 0
M  V30 19 H -1.4098 -1.2993 -1.7338 0
M  V30 20 H 0.673 -3.1366 2.2873 0
M  V30 21 H 0.7158 0.6244 -2.9367 0
M  V30 22 H -0.9228 0.3921 -3.5716 0
M  V30 23 H 1.0265 -1.638 -3.22 0
M  V30 END ATOM
M  V30 BEGIN BOND
M  V30 1 2 1 2
M  V30 2 1 2 3
M  V30 3 1 2 4
M  V30 4 1 3 5
M  V30 5 1 3 6
M  V30 6 1 5 7
M  V30 7 1 5 8
M  V30 8 1 6 9
M  V30 9 2 7 10
M  V30 10 2 8 11
M  V30 11 1 8 12
M  V30 12 1 10 13
M  V30 13 1 13 14
M  V30 14 1 4 6
M  V30 15 1 7 9
M  V30 16 1 4 15
M  V30 17 1 4 16
M  V30 18 1 5 17
M  V30 19 1 6 18
M  V30 20 1 10 19
M  V30 21 1 12 20
M  V30 22 1 13 21
M  V30 23 1 13 22
M  V30 24 1 14 23
M  V30 END BOND
M  V30 BEGIN COLLECTION
M  V30 MDLV30/STEABS ATOMS=(2 5 6)
M  V30 END COLLECTION
M  V30 END CTAB
M  END
>  <level_0>
7663

>  <index>
7663

>  <NO.>
7664

>  <Name>
(2s,5s)-3-(2-hydroxyethylidene)-7-oxo-4-oxa-1-azabicyclo[3.2.0]heptane-2-carboxylic acid

>  <SMILES>
O=C(O)[C@@H]1C(=CCO)O[C@H]2CC(=O)N21

>  <logBB>


>  <Class>
1

>  <MW>
199.05

>  <nHBAcc>
4

>  <nHBDon>
2

>  <SLogP>
-1.1

>  <TopoPSA>
87.07

>  <MMFF94 Energy>
-5.0799

$$$$
O=C1NC(=O)N([C@H]2O[C@@H](CO)[C@@H](O)[C@@H]2O)C[C@H]1C=CBr
Actelion Java MolfileCreator 2.0

  0  0  0  0  0  0              0 V3000
M  V30 BEGIN CTAB
M  V30 COUNTS 35 36 0 0 0
M  V30 BEGIN ATOM
M  V30 1 Br -4.7713 3.3138 -0.2421 0
M  V30 2 C -4.4314 1.5186 -0.5595 0
M  V30 3 C -3.2019 0.9951 -0.6354 0
M  V30 4 C -2.9317 -0.4695 -0.8905 0 CFG=1
M  V30 5 C -2.3943 -0.6327 -2.2976 0
M  V30 6 C -1.9293 -1.0681 0.0891 0
M  V30 7 O -3.1267 -0.7047 -3.2829 0
M  V30 8 N -1.0308 -0.6221 -2.432 0
M  V30 9 N -0.5718 -0.601 -0.1516 0
M  V30 10 C -0.098 -0.4914 -1.4389 0
M  V30 11 C 0.3288 -0.4969 0.9865 0 CFG=1
M  V30 12 O 1.076 -0.2748 -1.7301 0
M  V30 13 O 1.3239 -1.5242 0.8865 0
M  V30 14 C 1.0542 0.8423 1.1326 0 CFG=1
M  V30 15 C 2.5768 -0.9901 1.3788 0 CFG=2
M  V30 16 O 0.286 1.8116 1.8469 0
M  V30 17 C 2.2823 0.4141 1.9189 0 CFG=1
M  V30 18 C 3.6332 -1.0554 0.271 0
M  V30 19 O 3.3387 1.3585 1.7942 0
M  V30 20 O 3.4859 0.0218 -0.6536 0
M  V30 21 H -5.3339 0.9305 -0.6849 0
M  V30 22 H -2.3378 1.6471 -0.5104 0
M  V30 23 H -3.8647 -1.043 -0.8202 0
M  V30 24 H -1.908 -2.1605 -0.0097 0
M  V30 25 H -2.2279 -0.828 1.1162 0
M  V30 26 H -0.6759 -0.6297 -3.3769 0
M  V30 27 H -0.244 -0.6945 1.9013 0
M  V30 28 H 1.3292 1.2961 0.1768 0
M  V30 29 H 2.898 -1.6494 2.1931 0
M  V30 30 H 0.903 2.5401 2.0547 0
M  V30 31 H 2.0327 0.3553 2.9855 0
M  V30 32 H 3.5771 -1.9973 -0.2839 0
M  V30 33 H 4.6337 -0.9659 0.7055 0
M  V30 34 H 3.6262 1.3433 0.8541 0
M  V30 35 H 2.6902 -0.1856 -1.1997 0
M  V30 END ATOM
M  V30 BEGIN BOND
M  V30 1 1 1 2
M  V30 2 2 2 3
M  V30 3 1 3 4
M  V30 4 1 4 5
M  V30 5 1 4 6
M  V30 6 2 5 7
M  V30 7 1 5 8
M  V30 8 1 6 9
M  V30 9 1 8 10
M  V30 10 1 9 11
M  V30 11 2 10 12
M  V30 12 1 11 13
M  V30 13 1 11 14
M  V30 14 1 13 15
M  V30 15 1 14 16
M  V30 16 1 14 17
M  V30 17 1 15 18
M  V30 18 1 17 19
M  V30 19 1 18 20
M  V30 20 1 9 10
M  V30 21 1 15 17
M  V30 22 1 2 21
M  V30 23 1 3 22
M  V30 24 1 4 23
M  V30 25 1 6 24
M  V30 26 1 6 25
M  V30 27 1 8 26
M  V30 28 1 11 27
M  V30 29 1 14 28
M  V30 30 1 15 29
M  V30 31 1 16 30
M  V30 32 1 17 31
M  V30 33 1 18 32
M  V30 34 1 18 33
M  V30 35 1 19 34
M  V30 36 1 20 35
M  V30 END BOND
M  V30 BEGIN COLLECTION
M  V30 MDLV30/STEABS ATOMS=(5 4 11 14 15 17)
M  V30 END COLLECTION
M  V30 END CTAB
M  END
>  <level_0>
7681

>  <index>
7681

>  <NO.>
7682

>  <Name>


>  <SMILES>
O=C1NC(=O)N([C@H]2O[C@@H](CO)[C@@H](O)[C@@H]2O)C[C@H]1C=CBr

>  <logBB>


>  <Class>
1

>  <MW>
350.01

>  <nHBAcc>
6

>  <nHBDon>
4

>  <SLogP>
-1.5

>  <TopoPSA>
119.33

>  <MMFF94 Energy>
-23.812

$$$$
O=CN(O)CCCP(=O)(O)O
Actelion Java MolfileCreator 2.0

  0  0  0  0  0  0              0 V3000
M  V30 BEGIN CTAB
M  V30 COUNTS 21 20 0 0 0
M  V30 BEGIN ATOM
M  V30 1 P 1.3592 -2.1594 1.0392 0
M  V30 2 O 1.3711 -3.6282 1.2922 0
M  V30 3 O 1.6305 -1.3224 2.3767 0
M  V30 4 O 2.59 -1.6967 0.1279 0
M  V30 5 C -0.0984 -1.4573 0.3041 0
M  V30 6 C -0.0291 0.0469 0.0706 0
M  V30 7 C -1.324 0.5776 -0.5373 0
M  V30 8 N -1.2532 2.0096 -0.7858 0
M  V30 9 O -1.346 2.814 0.3625 0
M  V30 10 C -0.8394 2.5948 -1.9479 0
M  V30 11 O -0.6049 2.0121 -2.9994 0
M  V30 12 H 2.3028 -1.7312 2.9522 0
M  V30 13 H 3.4169 -2.1725 0.3271 0
M  V30 14 H -0.9517 -1.6865 0.9527 0
M  V30 15 H -0.2793 -1.9654 -0.6498 0
M  V30 16 H 0.8162 0.2782 -0.5883 0
M  V30 17 H 0.1757 0.5571 1.0192 0
M  V30 18 H -1.5158 0.0728 -1.4907 0
M  V30 19 H -2.1741 0.3925 0.1284 0
M  V30 20 H -2.3066 2.9726 0.4222 0
M  V30 21 H -0.7519 3.6904 -1.8587 0
M  V30 END ATOM
M  V30 BEGIN BOND
M  V30 1 2 1 2
M  V30 2 1 1 3
M  V30 3 1 1 4
M  V30 4 1 1 5
M  V30 5 1 5 6
M  V30 6 1 6 7
M  V30 7 1 7 8
M  V30 8 1 8 9
M  V30 9 1 8 10
M  V30 10 2 10 11
M  V30 11 1 3 12
M  V30 12 1 4 13
M  V30 13 1 5 14
M  V30 14 1 5 15
M  V30 15 1 6 16
M  V30 16 1 6 17
M  V30 17 1 7 18
M  V30 18 1 7 19
M  V30 19 1 9 20
M  V30 20 1 10 21
M  V30 END BOND
M  V30 END CTAB
M  END
>  <level_0>
7690

>  <index>
7690

>  <NO.>
7691

>  <Name>
fosmidomycin

>  <SMILES>
O=CN(O)CCCP(=O)(O)O

>  <logBB>


>  <Class>
-1

>  <MW>
183.03

>  <nHBAcc>
3

>  <nHBDon>
3

>  <SLogP>
-0.6

>  <TopoPSA>
98.07

>  <MMFF94 Energy>
-112.62

$$$$
O=c1[nH]c2ccccc2n1C1CCN(CCC(c2ccc(F)cc2)c2ccc(F)cc2)CC1
Actelion Java MolfileCreator 2.0

  0  0  0  0  0  0              0 V3000
M  V30 BEGIN CTAB
M  V30 COUNTS 60 64 0 0 0
M  V30 BEGIN ATOM
M  V30 1 F -2.1682 5.7899 -2.8917 0
M  V30 2 C -2.1778 4.7109 -2.0981 0
M  V30 3 C -1.2408 4.6034 -1.0788 0
M  V30 4 C -3.1251 3.7171 -2.3046 0
M  V30 5 C -1.2491 3.4797 -0.2508 0
M  V30 6 C -3.1358 2.5922 -1.4781 0
M  V30 7 C -2.1943 2.4559 -0.443 0
M  V30 8 C -2.1877 1.2355 0.474 0
M  V30 9 C -3.3838 1.2539 1.4289 0
M  V30 10 C -2.023 -0.1011 -0.2949 0
M  V30 11 C -4.5801 0.567 1.1581 0
M  V30 12 C -3.3014 2.0146 2.6114 0
M  V30 13 C -0.6619 -0.2038 -1.005 0
M  V30 14 C -5.6528 0.6249 2.0512 0
M  V30 15 C -4.3749 2.0715 3.5021 0
M  V30 16 N -0.5188 -1.4531 -1.7715 0
M  V30 17 C -5.5399 1.3744 3.2144 0
M  V30 18 C -0.3837 -2.6628 -0.9463 0
M  V30 19 C 0.5808 -1.3752 -2.7474 0
M  V30 20 F -6.5704 1.4287 4.0683 0
M  V30 21 C 0.9593 -2.7773 -0.2236 0
M  V30 22 C 1.9716 -1.4141 -2.1133 0
M  V30 23 C 2.1192 -2.6474 -1.2163 0
M  V30 24 N 3.4213 -2.7397 -0.5842 0
M  V30 25 C 4.3424 -3.7839 -0.8368 0
M  V30 26 C 3.9952 -1.8616 0.3538 0
M  V30 27 O 4.2106 -4.7354 -1.5882 0
M  V30 28 N 5.4696 -3.5259 -0.0463 0
M  V30 29 C 5.2595 -2.3599 0.6762 0
M  V30 30 C 3.527 -0.7018 0.9339 0
M  V30 31 C 6.1024 -1.7421 1.5725 0
M  V30 32 C 4.3643 -0.0516 1.8502 0
M  V30 33 C 5.6382 -0.5662 2.1661 0
M  V30 34 H -0.5132 5.3953 -0.9342 0
M  V30 35 H -3.851 3.8242 -3.1042 0
M  V30 36 H -0.5129 3.4105 0.5467 0
M  V30 37 H -3.889 1.8261 -1.647 0
M  V30 38 H -1.2965 1.3028 1.1164 0
M  V30 39 H -2.8212 -0.2338 -1.0355 0
M  V30 40 H -2.1224 -0.9208 0.4264 0
M  V30 41 H -4.6983 -0.0172 0.2493 0
M  V30 42 H -2.3976 2.5743 2.8429 0
M  V30 43 H -0.587 0.6382 -1.7035 0
M  V30 44 H 0.1483 -0.0785 -0.2784 0
M  V30 45 H -6.576 0.0933 1.8434 0
M  V30 46 H -4.3105 2.6576 4.413 0
M  V30 47 H -1.1999 -2.7428 -0.2212 0
M  V30 48 H -0.5072 -3.5365 -1.6003 0
M  V30 49 H 0.4825 -2.2148 -3.4481 0
M  V30 50 H 0.4797 -0.4739 -3.3646 0
M  V30 51 H 1.0198 -2.021 0.5649 0
M  V30 52 H 1.017 -3.7481 0.2841 0
M  V30 53 H 2.7318 -1.4393 -2.9039 0
M  V30 54 H 2.1462 -0.4895 -1.5542 0
M  V30 55 H 2.045 -3.5177 -1.8839 0
M  V30 56 H 6.2845 -4.116 -0.031 0
M  V30 57 H 2.5531 -0.2907 0.7051 0
M  V30 58 H 7.0799 -2.1435 1.8101 0
M  V30 59 H 4.0278 0.8666 2.3276 0
M  V30 60 H 6.2661 -0.039 2.8815 0
M  V30 END ATOM
M  V30 BEGIN BOND
M  V30 1 1 1 2
M  V30 2 2 2 3
M  V30 3 1 2 4
M  V30 4 1 3 5
M  V30 5 2 4 6
M  V30 6 2 5 7
M  V30 7 1 7 8
M  V30 8 1 8 9
M  V30 9 1 8 10
M  V30 10 2 9 11
M  V30 11 1 9 12
M  V30 12 1 10 13
M  V30 13 1 11 14
M  V30 14 2 12 15
M  V30 15 1 13 16
M  V30 16 2 14 17
M  V30 17 1 16 18
M  V30 18 1 16 19
M  V30 19 1 17 20
M  V30 20 1 18 21
M  V30 21 1 19 22
M  V30 22 1 21 23
M  V30 23 1 23 24
M  V30 24 1 24 25
M  V30 25 1 24 26
M  V30 26 2 25 27
M  V30 27 1 25 28
M  V30 28 2 26 29
M  V30 29 1 26 30
M  V30 30 1 29 31
M  V30 31 2 30 32
M  V30 32 2 31 33
M  V30 33 1 6 7
M  V30 34 1 15 17
M  V30 35 1 22 23
M  V30 36 1 28 29
M  V30 37 1 32 33
M  V30 38 1 3 34
M  V30 39 1 4 35
M  V30 40 1 5 36
M  V30 41 1 6 37
M  V30 42 1 8 38
M  V30 43 1 10 39
M  V30 44 1 10 40
M  V30 45 1 11 41
M  V30 46 1 12 42
M  V30 47 1 13 43
M  V30 48 1 13 44
M  V30 49 1 14 45
M  V30 50 1 15 46
M  V30 51 1 18 47
M  V30 52 1 18 48
M  V30 53 1 19 49
M  V30 54 1 19 50
M  V30 55 1 21 51
M  V30 56 1 21 52
M  V30 57 1 22 53
M  V30 58 1 22 54
M  V30 59 1 23 55
M  V30 60 1 28 56
M  V30 61 1 30 57
M  V30 62 1 31 58
M  V30 63 1 32 59
M  V30 64 1 33 60
M  V30 END BOND
M  V30 END CTAB
M  END
>  <level_0>
7695

>  <index>
7695

>  <NO.>
7696

>  <Name>
3-[1-[3,3-bis(4-fluorophenyl)propyl]piperidin-4-yl]-1h-benzimidazol-2-one

>  <SMILES>
O=c1[nH]c2ccccc2n1C1CCN(CCC(c2ccc(F)cc2)c2ccc(F)cc2)CC1

>  <logBB>


>  <Class>
1

>  <MW>
447.21

>  <nHBAcc>
2

>  <nHBDon>
1

>  <SLogP>
5.47

>  <TopoPSA>
41.03

>  <MMFF94 Energy>
30.154

$$$$
OC[C@@H]1O[C@@H](OC[C@@H]2O[C@@H](O[C@]3(CO)O[C@@H](CO)[C@H](O)[C@@H]3O)[C@@H](O)[C@@H](O)[C@@H]2O)[C@@H](O)[C@@H](O)[C@@H]1O
Actelion Java MolfileCreator 2.0

  0  0  0  0  0  0              0 V3000
M  V30 BEGIN CTAB
M  V30 COUNTS 66 68 0 0 0
M  V30 BEGIN ATOM
M  V30 1 O 0.0799 -0.8794 -1.5194 0
M  V30 2 C -1.3358 -0.9447 -1.3063 0 CFG=1
M  V30 3 C 0.4239 -0.0079 -2.6191 0 CFG=2
M  V30 4 O -1.8363 0.3362 -0.9359 0
M  V30 5 C -2.0689 -1.4677 -2.5686 0 CFG=1
M  V30 6 C -0.1286 -0.582 -3.937 0 CFG=2
M  V30 7 C 1.9508 0.1245 -2.6483 0
M  V30 8 C -2.0882 0.527 0.4572 0 CFG=2
M  V30 9 O -3.5024 -1.3705 -2.4565 0
M  V30 10 C -1.6494 -0.7194 -3.8421 0 CFG=2
M  V30 11 O 0.426 -1.8733 -4.2181 0
M  V30 12 O 2.3655 1.002 -1.589 0
M  V30 13 O -1.1241 -0.0979 1.3329 0
M  V30 14 C -3.4817 -5.0E-4 0.8708 0 CFG=1
M  V30 15 C -1.9529 2.0564 0.6807 0
M  V30 16 O -2.2649 0.5766 -3.8883 0
M  V30 17 C 3.5251 0.5138 -0.904 0 CFG=2
M  V30 18 C -1.8427 -0.8037 2.3687 0 CFG=2
M  V30 19 O -3.8425 -1.2336 0.2008 0
M  V30 20 C -3.2899 -0.3077 2.3461 0 CFG=2
M  V30 21 O -2.1532 2.4515 2.0387 0
M  V30 22 O 3.2505 -0.6911 -0.2018 0
M  V30 23 C 4.0861 1.6288 0.0089 0 CFG=1
M  V30 24 C -1.1483 -0.5805 3.7121 0
M  V30 25 O -4.2244 -1.3042 2.7697 0
M  V30 26 C 2.3612 -0.495 0.9148 0 CFG=2
M  V30 27 O 4.0947 2.8918 -0.6867 0
M  V30 28 C 3.3058 1.7875 1.3229 0 CFG=2
M  V30 29 O -1.2576 0.769 4.1574 0
M  V30 30 C 3.0109 0.4263 1.9607 0 CFG=2
M  V30 31 C 2.043 -1.888 1.4707 0
M  V30 32 O 2.0877 2.5155 1.1084 0
M  V30 33 O 4.2429 -0.1166 2.4511 0
M  V30 34 O 1.1412 -2.6007 0.6203 0
M  V30 35 H -1.5042 -1.675 -0.5082 0
M  V30 36 H 0.0011 0.9863 -2.4267 0
M  V30 37 H -1.8131 -2.5268 -2.694 0
M  V30 38 H 0.1274 0.0861 -4.768 0
M  V30 39 H 2.2821 0.5832 -3.5857 0
M  V30 40 H 2.4182 -0.863 -2.5563 0
M  V30 41 H -3.7131 -1.4203 -1.4961 0
M  V30 42 H -2.0331 -1.2684 -4.7105 0
M  V30 43 H 1.3334 -1.7512 -4.5448 0
M  V30 44 H -4.2923 0.7069 0.6737 0
M  V30 45 H -0.9441 2.3757 0.3926 0
M  V30 46 H -2.664 2.6008 0.0492 0
M  V30 47 H -3.1687 0.4224 -3.5407 0
M  V30 48 H 4.2857 0.2981 -1.665 0
M  V30 49 H -1.7925 -1.8722 2.1261 0
M  V30 50 H -4.3996 -1.7063 0.8607 0
M  V30 51 H -3.4486 0.5911 2.9477 0
M  V30 52 H -1.9498 3.4052 2.0773 0
M  V30 53 H 5.1222 1.3737 0.262 0
M  V30 54 H -0.0823 -0.8078 3.6385 0
M  V30 55 H -1.5883 -1.2197 4.4834 0
M  V30 56 H -4.1654 -1.3492 3.7428 0
M  V30 57 H 1.4326 -0.0435 0.55 0
M  V30 58 H 3.3302 2.8435 -1.2981 0
M  V30 59 H 3.9052 2.3972 2.0103 0
M  V30 60 H -1.1584 1.3465 3.3702 0
M  V30 61 H 2.3326 0.5575 2.8122 0
M  V30 62 H 1.5756 -1.8262 2.4559 0
M  V30 63 H 2.9502 -2.4952 1.5528 0
M  V30 64 H 2.365 3.3388 0.662 0
M  V30 65 H 4.0373 -0.9079 2.978 0
M  V30 66 H 1.1379 -2.143 -0.2465 0
M  V30 END ATOM
M  V30 BEGIN BOND
M  V30 1 1 1 2
M  V30 2 1 1 3
M  V30 3 1 2 4
M  V30 4 1 2 5
M  V30 5 1 3 6
M  V30 6 1 3 7
M  V30 7 1 4 8
M  V30 8 1 5 9
M  V30 9 1 5 10
M  V30 10 1 6 11
M  V30 11 1 7 12
M  V30 12 1 8 13
M  V30 13 1 8 14
M  V30 14 1 8 15
M  V30 15 1 10 16
M  V30 16 1 12 17
M  V30 17 1 13 18
M  V30 18 1 14 19
M  V30 19 1 14 20
M  V30 20 1 15 21
M  V30 21 1 17 22
M  V30 22 1 17 23
M  V30 23 1 18 24
M  V30 24 1 20 25
M  V30 25 1 22 26
M  V30 26 1 23 27
M  V30 27 1 23 28
M  V30 28 1 24 29
M  V30 29 1 26 30
M  V30 30 1 26 31
M  V30 31 1 28 32
M  V30 32 1 30 33
M  V30 33 1 31 34
M  V30 34 1 6 10
M  V30 35 1 18 20
M  V30 36 1 28 30
M  V30 37 1 2 35
M  V30 38 1 3 36
M  V30 39 1 5 37
M  V30 40 1 6 38
M  V30 41 1 7 39
M  V30 42 1 7 40
M  V30 43 1 9 41
M  V30 44 1 10 42
M  V30 45 1 11 43
M  V30 46 1 14 44
M  V30 47 1 15 45
M  V30 48 1 15 46
M  V30 49 1 16 47
M  V30 50 1 17 48
M  V30 51 1 18 49
M  V30 52 1 19 50
M  V30 53 1 20 51
M  V30 54 1 21 52
M  V30 55 1 23 53
M  V30 56 1 24 54
M  V30 57 1 24 55
M  V30 58 1 25 56
M  V30 59 1 26 57
M  V30 60 1 27 58
M  V30 61 1 28 59
M  V30 62 1 29 60
M  V30 63 1 30 61
M  V30 64 1 31 62
M  V30 65 1 31 63
M  V30 66 1 32 64
M  V30 67 1 33 65
M  V30 68 1 34 66
M  V30 END BOND
M  V30 BEGIN COLLECTION
M  V30 MDLV30/STEABS ATOMS=(14 2 3 5 6 8 10 14 17 18 20 23 26 28 30)
M  V30 END COLLECTION
M  V30 END CTAB
M  END
>  <level_0>
7700

>  <index>
7700

>  <NO.>
7701

>  <Name>


>  <SMILES>
OC[C@@H]1O[C@@H](OC[C@@H]2O[C@@H](O[C@]3(CO)O[C@@H](CO)[C@H](O)[C@@H]3O)[C@@H](O)[C@@H](O)[C@@H]2O)[C@@H](O)[C@@H](O)[C@@H]1O

>  <logBB>


>  <Class>
-1

>  <MW>
504.17

>  <nHBAcc>
16

>  <nHBDon>
11

>  <SLogP>
-7.57

>  <TopoPSA>
268.68

>  <MMFF94 Energy>
300.59

$$$$
C/C(=C\C(N)C(=O)O)CP(=O)(O)O
Actelion Java MolfileCreator 2.0

  0  0  0  0  0  0              0 V3000
M  V30 BEGIN CTAB
M  V30 COUNTS 25 24 0 0 0
M  V30 BEGIN ATOM
M  V30 1 P -1.2747 0.2389 -2.6306 0
M  V30 2 O -2.4287 0.5914 -3.51 0
M  V30 3 O -0.2361 -0.7076 -3.4026 0
M  V30 4 O -0.3595 1.5223 -2.3362 0
M  V30 5 C -1.64 -0.5254 -1.0605 0
M  V30 6 C -0.4405 -0.695 -0.1468 0
M  V30 7 C -0.3781 -0.0309 1.0276 0
M  V30 8 C 0.6084 -1.6602 -0.6264 0
M  V30 9 C 0.7221 -0.0579 2.0524 0 CFG=2
M  V30 10 N 0.1367 -0.3913 3.3685 0
M  V30 11 C 1.395 1.3271 2.112 0
M  V30 12 O 1.1309 2.2261 2.8992 0
M  V30 13 O 2.3485 1.5015 1.1737 0
M  V30 14 H -0.1416 -0.4722 -4.3434 0
M  V30 15 H -0.2833 2.1155 -3.1048 0
M  V30 16 H -2.4057 0.0881 -0.5712 0
M  V30 17 H -2.1021 -1.5038 -1.2346 0
M  V30 18 H -1.2019 0.637 1.2813 0
M  V30 19 H 1.2923 -1.1657 -1.3222 0
M  V30 20 H 1.2002 -2.0829 0.189 0
M  V30 21 H 0.1432 -2.5099 -1.1375 0
M  V30 22 H 1.497 -0.7985 1.8412 0
M  V30 23 H 0.8983 -0.4661 4.0427 0
M  V30 24 H -0.3952 0.4236 3.6836 0
M  V30 25 H 2.6449 2.4261 1.3024 0
M  V30 END ATOM
M  V30 BEGIN BOND
M  V30 1 2 1 2
M  V30 2 1 1 3
M  V30 3 1 1 4
M  V30 4 1 1 5
M  V30 5 1 5 6
M  V30 6 2 6 7
M  V30 7 1 6 8
M  V30 8 1 7 9
M  V30 9 1 9 10
M  V30 10 1 9 11
M  V30 11 2 11 12
M  V30 12 1 11 13
M  V30 13 1 3 14
M  V30 14 1 4 15
M  V30 15 1 5 16
M  V30 16 1 5 17
M  V30 17 1 7 18
M  V30 18 1 8 19
M  V30 19 1 8 20
M  V30 20 1 8 21
M  V30 21 1 9 22
M  V30 22 1 10 23
M  V30 23 1 10 24
M  V30 24 1 13 25
M  V30 END BOND
M  V30 BEGIN COLLECTION
M  V30 MDLV30/STERAC1 ATOMS=(1 9)
M  V30 END COLLECTION
M  V30 END CTAB
M  END
>  <level_0>
7720

>  <index>
7720

>  <NO.>
7721

>  <Name>
cgp-37849

>  <SMILES>
C/C(=C\C(N)C(=O)O)CP(=O)(O)O

>  <logBB>


>  <Class>
1

>  <MW>
209.05

>  <nHBAcc>
3

>  <nHBDon>
4

>  <SLogP>
-0.48

>  <TopoPSA>
120.85

>  <MMFF94 Energy>
-48.548

$$$$
O=C(O)[C@@H]1C[C@H](CP(=O)(O)O)CCN1
Actelion Java MolfileCreator 2.0

  0  0  0  0  0  0              0 V3000
M  V30 BEGIN CTAB
M  V30 COUNTS 28 28 0 0 0
M  V30 BEGIN ATOM
M  V30 1 P 2.7433 0.5643 1.2902 0
M  V30 2 O 2.4362 2.021 1.2448 0
M  V30 3 O 4.3159 0.2857 1.1685 0
M  V30 4 O 2.4417 -0.0637 2.7329 0
M  V30 5 C 1.976 -0.5274 0.1152 0
M  V30 6 C 0.4468 -0.6098 0.1936 0 CFG=1
M  V30 7 C -0.2268 0.6736 -0.319 0
M  V30 8 C -0.0658 -1.8218 -0.5997 0
M  V30 9 C -1.7532 0.5302 -0.3504 0 CFG=2
M  V30 10 C -1.5918 -1.8738 -0.6262 0
M  V30 11 N -2.1388 -0.6381 -1.1734 0
M  V30 12 C -2.4178 1.7949 -0.9074 0
M  V30 13 O -1.9261 2.9063 -1.0181 0
M  V30 14 O -3.7178 1.599 -1.238 0
M  V30 15 H 4.8557 0.9537 1.6297 0
M  V30 16 H 2.6795 0.5374 3.4626 0
M  V30 17 H 2.2844 -0.2332 -0.8946 0
M  V30 18 H 2.3953 -1.5262 0.2874 0
M  V30 19 H 0.1626 -0.7455 1.2455 0
M  V30 20 H 0.1462 0.9184 -1.3228 0
M  V30 21 H 0.0407 1.5191 0.3245 0
M  V30 22 H 0.3153 -1.7811 -1.6288 0
M  V30 23 H 0.3185 -2.748 -0.1559 0
M  V30 24 H -2.1343 0.4079 0.672 0
M  V30 25 H -1.911 -2.7131 -1.2534 0
M  V30 26 H -1.9873 -2.0562 0.3802 0
M  V30 27 H -3.1605 -0.6809 -1.2003 0
M  V30 28 H -3.9951 2.4737 -1.5819 0
M  V30 END ATOM
M  V30 BEGIN BOND
M  V30 1 2 1 2
M  V30 2 1 1 3
M  V30 3 1 1 4
M  V30 4 1 1 5
M  V30 5 1 5 6
M  V30 6 1 6 7
M  V30 7 1 6 8
M  V30 8 1 7 9
M  V30 9 1 8 10
M  V30 10 1 9 11
M  V30 11 1 9 12
M  V30 12 2 12 13
M  V30 13 1 12 14
M  V30 14 1 10 11
M  V30 15 1 3 15
M  V30 16 1 4 16
M  V30 17 1 5 17
M  V30 18 1 5 18
M  V30 19 1 6 19
M  V30 20 1 7 20
M  V30 21 1 7 21
M  V30 22 1 8 22
M  V30 23 1 8 23
M  V30 24 1 9 24
M  V30 25 1 10 25
M  V30 26 1 10 26
M  V30 27 1 11 27
M  V30 28 1 14 28
M  V30 END BOND
M  V30 BEGIN COLLECTION
M  V30 MDLV30/STEABS ATOMS=(2 6 9)
M  V30 END COLLECTION
M  V30 END CTAB
M  END
>  <level_0>
7725

>  <index>
7725

>  <NO.>
7726

>  <Name>
cgs-19755

>  <SMILES>
O=C(O)[C@@H]1C[C@H](CP(=O)(O)O)CCN1

>  <logBB>


>  <Class>
1

>  <MW>
223.06

>  <nHBAcc>
3

>  <nHBDon>
4

>  <SLogP>
-0.38

>  <TopoPSA>
106.86

>  <MMFF94 Energy>
-100.57

$$$$
Cc1c(C(=O)NN2CCCCC2)nn(-c2ccc(Cl)cc2Cl)c1-c1ccc(Cl)cc1
Actelion Java MolfileCreator 2.0

  0  0  0  0  0  0              0 V3000
M  V30 BEGIN CTAB
M  V30 COUNTS 51 54 0 0 0
M  V30 BEGIN ATOM
M  V30 1 Cl 1.636 -2.5366 2.7005 0
M  V30 2 C 2.7369 -1.8984 1.5331 0
M  V30 3 C 2.4355 -0.8005 0.7193 0
M  V30 4 C 3.9651 -2.5462 1.3794 0
M  V30 5 N 1.218 -0.1029 0.8491 0
M  V30 6 C 3.3349 -0.369 -0.2668 0
M  V30 7 C 4.8685 -2.1035 0.4126 0
M  V30 8 N 0.3259 -0.1592 -0.1646 0
M  V30 9 C 0.804 0.7066 1.8954 0
M  V30 10 C 4.5579 -1.0231 -0.4135 0
M  V30 11 Cl 6.3792 -2.9062 0.2284 0
M  V30 12 C -0.7299 0.5563 0.2689 0
M  V30 13 C 1.6129 1.02 3.0771 0
M  V30 14 C -0.4704 1.139 1.5461 0
M  V30 15 C -1.9521 0.6802 -0.5533 0
M  V30 16 C 1.1069 0.7686 4.3603 0
M  V30 17 C 2.8791 1.6081 2.951 0
M  V30 18 C -1.3827 2.0379 2.3039 0
M  V30 19 O -2.9296 1.3309 -0.1948 0
M  V30 20 N -1.847 -0.0241 -1.7455 0
M  V30 21 C 1.8636 1.0711 5.4958 0
M  V30 22 C 3.6367 1.912 4.086 0
M  V30 23 N -2.8935 -0.0452 -2.6837 0
M  V30 24 C 3.1268 1.6392 5.3532 0
M  V30 25 C -3.4963 -1.3824 -2.7631 0
M  V30 26 C -2.4323 0.4268 -3.9952 0
M  V30 27 Cl 4.0603 2.012 6.7488 0
M  V30 28 C -4.6781 -1.3965 -3.7331 0
M  V30 29 C -3.5825 0.4668 -5.0016 0
M  V30 30 C -4.2707 -0.8894 -5.1123 0
M  V30 31 H 4.2152 -3.4001 2.0044 0
M  V30 32 H 3.0898 0.4702 -0.9153 0
M  V30 33 H 5.2616 -0.6902 -1.1728 0
M  V30 34 H 0.1246 0.3171 4.4857 0
M  V30 35 H 3.2851 1.8515 1.9721 0
M  V30 36 H -2.2382 1.4733 2.6881 0
M  V30 37 H -1.7547 2.842 1.6609 0
M  V30 38 H -0.8807 2.5128 3.1516 0
M  V30 39 H -0.9761 -0.5295 -1.9034 0
M  V30 40 H 1.4617 0.8596 6.4832 0
M  V30 41 H 4.6177 2.3663 3.9741 0
M  V30 42 H -2.7507 -2.125 -3.0766 0
M  V30 43 H -3.858 -1.6851 -1.7725 0
M  V30 44 H -2.0199 1.4389 -3.8997 0
M  V30 45 H -1.628 -0.2157 -4.3774 0
M  V30 46 H -5.4858 -0.7678 -3.3371 0
M  V30 47 H -5.0766 -2.4139 -3.8162 0
M  V30 48 H -4.3149 1.2236 -4.6926 0
M  V30 49 H -3.2043 0.7707 -5.9842 0
M  V30 50 H -3.5878 -1.6093 -5.58 0
M  V30 51 H -5.1511 -0.8124 -5.7597 0
M  V30 END ATOM
M  V30 BEGIN BOND
M  V30 1 1 1 2
M  V30 2 2 2 3
M  V30 3 1 2 4
M  V30 4 1 3 5
M  V30 5 1 3 6
M  V30 6 2 4 7
M  V30 7 1 5 8
M  V30 8 1 5 9
M  V30 9 2 6 10
M  V30 10 1 7 11
M  V30 11 2 8 12
M  V30 12 1 9 13
M  V30 13 2 9 14
M  V30 14 1 12 15
M  V30 15 2 13 16
M  V30 16 1 13 17
M  V30 17 1 14 18
M  V30 18 2 15 19
M  V30 19 1 15 20
M  V30 20 1 16 21
M  V30 21 2 17 22
M  V30 22 1 20 23
M  V30 23 2 21 24
M  V30 24 1 23 25
M  V30 25 1 23 26
M  V30 26 1 24 27
M  V30 27 1 25 28
M  V30 28 1 26 29
M  V30 29 1 28 30
M  V30 30 1 7 10
M  V30 31 1 12 14
M  V30 32 1 22 24
M  V30 33 1 29 30
M  V30 34 1 4 31
M  V30 35 1 6 32
M  V30 36 1 10 33
M  V30 37 1 16 34
M  V30 38 1 17 35
M  V30 39 1 18 36
M  V30 40 1 18 37
M  V30 41 1 18 38
M  V30 42 1 20 39
M  V30 43 1 21 40
M  V30 44 1 22 41
M  V30 45 1 25 42
M  V30 46 1 25 43
M  V30 47 1 26 44
M  V30 48 1 26 45
M  V30 49 1 28 46
M  V30 50 1 28 47
M  V30 51 1 29 48
M  V30 52 1 29 49
M  V30 53 1 30 50
M  V30 54 1 30 51
M  V30 END BOND
M  V30 END CTAB
M  END
>  <level_0>
7747

>  <index>
7747

>  <NO.>
7748

>  <Name>
rimonabant

>  <SMILES>
Cc1c(C(=O)NN2CCCCC2)nn(-c2ccc(Cl)cc2Cl)c1-c1ccc(Cl)cc1

>  <logBB>


>  <Class>
1

>  <MW>
462.08

>  <nHBAcc>
3

>  <nHBDon>
1

>  <SLogP>
5.94

>  <TopoPSA>
50.16

>  <MMFF94 Energy>
124.13

$$$$
Oc1cc(Cl)ccc1Oc1ccc(Cl)cc1Cl
Actelion Java MolfileCreator 2.0

  0  0  0  0  0  0              0 V3000
M  V30 BEGIN CTAB
M  V30 COUNTS 24 25 0 0 0
M  V30 BEGIN ATOM
M  V30 1 Cl 2.5179 2.6019 0.9227 0
M  V30 2 C 1.807 1.1718 1.5809 0
M  V30 3 C 1.2407 0.1918 0.7555 0
M  V30 4 C 1.8051 1.0113 2.9678 0
M  V30 5 O 1.2907 0.371 -0.6106 0
M  V30 6 C 0.7054 -0.9709 1.3246 0
M  V30 7 C 1.2492 -0.1381 3.525 0
M  V30 8 C 0.1455 0.0965 -1.3234 0
M  V30 9 C 0.7036 -1.1309 2.7118 0
M  V30 10 Cl 1.2441 -0.3409 5.2339 0
M  V30 11 C -1.0846 0.7202 -1.0795 0
M  V30 12 C 0.2754 -0.7979 -2.3887 0
M  V30 13 O -1.1956 1.6385 -0.0733 0
M  V30 14 C -2.1935 0.4175 -1.8688 0
M  V30 15 C -0.832 -1.1026 -3.1813 0
M  V30 16 C -2.0601 -0.4971 -2.9143 0
M  V30 17 Cl -3.4252 -0.8756 -3.8921 0
M  V30 18 H 2.2358 1.7763 3.6076 0
M  V30 19 H 0.2924 -1.7562 0.6977 0
M  V30 20 H 0.28 -2.0311 3.1498 0
M  V30 21 H 1.2381 -1.257 -2.5977 0
M  V30 22 H -2.0777 2.0437 -0.0978 0
M  V30 23 H -3.155 0.8864 -1.6852 0
M  V30 24 H -0.7297 -1.8048 -4.0045 0
M  V30 END ATOM
M  V30 BEGIN BOND
M  V30 1 1 1 2
M  V30 2 2 2 3
M  V30 3 1 2 4
M  V30 4 1 3 5
M  V30 5 1 3 6
M  V30 6 2 4 7
M  V30 7 1 5 8
M  V30 8 2 6 9
M  V30 9 1 7 10
M  V30 10 2 8 11
M  V30 11 1 8 12
M  V30 12 1 11 13
M  V30 13 1 11 14
M  V30 14 2 12 15
M  V30 15 2 14 16
M  V30 16 1 16 17
M  V30 17 1 7 9
M  V30 18 1 15 16
M  V30 19 1 4 18
M  V30 20 1 6 19
M  V30 21 1 9 20
M  V30 22 1 12 21
M  V30 23 1 13 22
M  V30 24 1 14 23
M  V30 25 1 15 24
M  V30 END BOND
M  V30 END CTAB
M  END
>  <level_0>
7755

>  <index>
7755

>  <NO.>
7756

>  <Name>
triclosan

>  <SMILES>
Oc1cc(Cl)ccc1Oc1ccc(Cl)cc1Cl

>  <logBB>


>  <Class>
1

>  <MW>
287.95

>  <nHBAcc>
2

>  <nHBDon>
1

>  <SLogP>
5.14

>  <TopoPSA>
29.46

>  <MMFF94 Energy>
41.21

$$$$
CCCc1nc2c(C)cc(-c3nc4ccccc4n3C)cc2n1Cc1ccc(-c2ccccc2C(=O)O)cc1
Actelion Java MolfileCreator 2.0

  0  0  0  0  0  0              0 V3000
M  V30 BEGIN CTAB
M  V30 COUNTS 69 74 0 0 0
M  V30 BEGIN ATOM
M  V30 1 O -6.0058 1.4389 -1.1989 0
M  V30 2 C -6.0031 2.5729 -0.7626 0
M  V30 3 O -7.0455 3.038 -0.0458 0
M  V30 4 C -4.9412 3.6021 -0.9053 0
M  V30 5 C -3.5772 3.2477 -0.9529 0
M  V30 6 C -5.3264 4.9496 -1.0305 0
M  V30 7 C -3.0895 1.8722 -0.7875 0
M  V30 8 C -2.6306 4.276 -1.1344 0
M  V30 9 C -4.3691 5.9482 -1.2062 0
M  V30 10 C -2.6578 1.1265 -1.8925 0
M  V30 11 C -3.0222 1.2831 0.4824 0
M  V30 12 C -3.0214 5.6108 -1.2604 0
M  V30 13 C -2.1786 -0.1771 -1.7347 0
M  V30 14 C -2.5432 -0.0202 0.6425 0
M  V30 15 C -2.1089 -0.764 -0.4636 0
M  V30 16 C -1.6243 -2.1821 -0.2754 0
M  V30 17 N -0.2972 -2.4034 -0.8339 0
M  V30 18 C 0.8783 -1.9195 -0.3001 0
M  V30 19 C 0.0168 -3.167 -1.9413 0
M  V30 20 C 1.8678 -2.4028 -1.1453 0
M  V30 21 C 1.1629 -1.1267 0.8189 0
M  V30 22 N 1.318 -3.1528 -2.1539 0
M  V30 23 C -1.0014 -3.8866 -2.7727 0
M  V30 24 C 3.2201 -2.113 -0.8829 0
M  V30 25 C 2.5004 -0.775 1.0629 0
M  V30 26 C -0.3993 -4.737 -3.894 0
M  V30 27 C 3.5075 -1.3114 0.2455 0
M  V30 28 C 4.3452 -2.6406 -1.7228 0
M  V30 29 C 2.8064 -0.0035 2.278 0
M  V30 30 C 0.2728 -6.0058 -3.3857 0
M  V30 31 N 2.1386 -0.1267 3.4141 0
M  V30 32 N 3.8079 0.9407 2.4239 0
M  V30 33 C 2.7597 0.6893 4.3209 0
M  V30 34 C 3.8205 1.3674 3.7341 0
M  V30 35 C 4.6388 1.4905 1.379 0
M  V30 36 C 2.4657 0.9023 5.6757 0
M  V30 37 C 4.6246 2.2681 4.4449 0
M  V30 38 C 3.2573 1.7968 6.4054 0
M  V30 39 C 4.3195 2.4667 5.7968 0
M  V30 40 H -7.656 2.2721 -0.0096 0
M  V30 41 H -6.3783 5.2258 -0.9998 0
M  V30 42 H -1.569 4.0334 -1.1675 0
M  V30 43 H -4.6765 6.9865 -1.3027 0
M  V30 44 H -2.7028 1.5563 -2.891 0
M  V30 45 H -3.3432 1.8396 1.3606 0
M  V30 46 H -2.2702 6.385 -1.3964 0
M  V30 47 H -1.8593 -0.7234 -2.619 0
M  V30 48 H -2.5097 -0.445 1.6439 0
M  V30 49 H -2.3365 -2.8726 -0.736 0
M  V30 50 H -1.563 -2.448 0.7867 0
M  V30 51 H 0.3753 -0.7723 1.4777 0
M  V30 52 H -1.6628 -3.1395 -3.2273 0
M  V30 53 H -1.6212 -4.5243 -2.1317 0
M  V30 54 H -1.2063 -5.0313 -4.5761 0
M  V30 55 H 0.3159 -4.152 -4.484 0
M  V30 56 H 4.553 -1.1354 0.4874 0
M  V30 57 H 3.9729 -3.1962 -2.589 0
M  V30 58 H 4.972 -3.3144 -1.1302 0
M  V30 59 H 4.9596 -1.8134 -2.0925 0
M  V30 60 H 0.6381 -6.6001 -4.2292 0
M  V30 61 H 1.1267 -5.7824 -2.7399 0
M  V30 62 H -0.433 -6.6223 -2.8199 0
M  V30 63 H 5.5501 0.8918 1.314 0
M  V30 64 H 4.8896 2.5269 1.619 0
M  V30 65 H 4.0954 1.4825 0.4315 0
M  V30 66 H 1.6394 0.376 6.1399 0
M  V30 67 H 5.4518 2.7929 3.9801 0
M  V30 68 H 3.0402 1.9682 7.4569 0
M  V30 69 H 4.9219 3.157 6.3838 0
M  V30 END ATOM
M  V30 BEGIN BOND
M  V30 1 2 1 2
M  V30 2 1 2 3
M  V30 3 1 2 4
M  V30 4 2 4 5
M  V30 5 1 4 6
M  V30 6 1 5 7
M  V30 7 1 5 8
M  V30 8 2 6 9
M  V30 9 2 7 10
M  V30 10 1 7 11
M  V30 11 2 8 12
M  V30 12 1 10 13
M  V30 13 2 11 14
M  V30 14 2 13 15
M  V30 15 1 15 16
M  V30 16 1 16 17
M  V30 17 1 17 18
M  V30 18 1 17 19
M  V30 19 2 18 20
M  V30 20 1 18 21
M  V30 21 2 19 22
M  V30 22 1 19 23
M  V30 23 1 20 24
M  V30 24 2 21 25
M  V30 25 1 23 26
M  V30 26 2 24 27
M  V30 27 1 24 28
M  V30 28 1 25 29
M  V30 29 1 26 30
M  V30 30 2 29 31
M  V30 31 1 29 32
M  V30 32 1 31 33
M  V30 33 1 32 34
M  V30 34 1 32 35
M  V30 35 1 33 36
M  V30 36 1 34 37
M  V30 37 2 36 38
M  V30 38 2 37 39
M  V30 39 1 9 12
M  V30 40 1 14 15
M  V30 41 1 20 22
M  V30 42 1 25 27
M  V30 43 2 33 34
M  V30 44 1 38 39
M  V30 45 1 3 40
M  V30 46 1 6 41
M  V30 47 1 8 42
M  V30 48 1 9 43
M  V30 49 1 10 44
M  V30 50 1 11 45
M  V30 51 1 12 46
M  V30 52 1 13 47
M  V30 53 1 14 48
M  V30 54 1 16 49
M  V30 55 1 16 50
M  V30 56 1 21 51
M  V30 57 1 23 52
M  V30 58 1 23 53
M  V30 59 1 26 54
M  V30 60 1 26 55
M  V30 61 1 27 56
M  V30 62 1 28 57
M  V30 63 1 28 58
M  V30 64 1 28 59
M  V30 65 1 30 60
M  V30 66 1 30 61
M  V30 67 1 30 62
M  V30 68 1 35 63
M  V30 69 1 35 64
M  V30 70 1 35 65
M  V30 71 1 36 66
M  V30 72 1 37 67
M  V30 73 1 38 68
M  V30 74 1 39 69
M  V30 END BOND
M  V30 END CTAB
M  END
>  <level_0>
7772

>  <index>
7772

>  <NO.>
7773

>  <Name>
telmisartan

>  <SMILES>
CCCc1nc2c(C)cc(-c3nc4ccccc4n3C)cc2n1Cc1ccc(-c2ccccc2C(=O)O)cc1

>  <logBB>


>  <Class>
-1

>  <MW>
514.24

>  <nHBAcc>
3

>  <nHBDon>
1

>  <SLogP>
7.26

>  <TopoPSA>
72.94

>  <MMFF94 Energy>
93.2

$$$$
